# generated using pymatgen
data_Ba9In4
_symmetry_space_group_name_H-M   'P 1'
_cell_length_a   10.29273958
_cell_length_b   10.29273958
_cell_length_c   10.29273958
_cell_angle_alpha   94.69269070
_cell_angle_beta   94.69269070
_cell_angle_gamma   146.75952236
_symmetry_Int_Tables_number   1
_chemical_formula_structural   Ba9In4
_chemical_formula_sum   'Ba9 In4'
_cell_volume   572.74549658
_cell_formula_units_Z   1
loop_
 _symmetry_equiv_pos_site_id
 _symmetry_equiv_pos_as_xyz
  1  'x, y, z'
loop_
 _atom_site_type_symbol
 _atom_site_label
 _atom_site_symmetry_multiplicity
 _atom_site_fract_x
 _atom_site_fract_y
 _atom_site_fract_z
 _atom_site_occupancy
  Ba  Ba0  1  0.89170000  0.62200000  0.51370000  1.0
  Ba  Ba1  1  0.62200000  0.10830000  0.73030000  1.0
  Ba  Ba2  1  1.10830000  1.37800000  1.48630000  1.0
  Ba  Ba3  1  0.37800000  0.89170000  1.26970000  1.0
  Ba  Ba4  1  0.60850000  0.68310000  1.29160000  1.0
  Ba  Ba5  1  0.68310000  1.39150000  1.07460000  1.0
  Ba  Ba6  1  0.39150000  0.31690000  0.70840000  1.0
  Ba  Ba7  1  1.31690000  0.60850000  0.92540000  1.0
  Ba  Ba8  1  0.00000000  0.00000000  0.00000000  1.0
  In  In9  1  0.76290000  0.90040000  1.66330000  1.0
  In  In10  1  0.90040000  1.23710000  1.13750000  1.0
  In  In11  1  0.23710000  0.09960000  0.33670000  1.0
  In  In12  1  1.09960000  0.76290000  0.86250000  1.0
