# generated using pymatgen
data_BaF2
_symmetry_space_group_name_H-M   'P 1'
_cell_length_a   6.52870000
_cell_length_b   3.96250000
_cell_length_c   7.76870000
_cell_angle_alpha   90.00000000
_cell_angle_beta   90.00000000
_cell_angle_gamma   90.00000000
_symmetry_Int_Tables_number   1
_chemical_formula_structural   BaF2
_chemical_formula_sum   'Ba4 F8'
_cell_volume   200.97606507
_cell_formula_units_Z   4
loop_
 _symmetry_equiv_pos_site_id
 _symmetry_equiv_pos_as_xyz
  1  'x, y, z'
loop_
 _atom_site_type_symbol
 _atom_site_label
 _atom_site_symmetry_multiplicity
 _atom_site_fract_x
 _atom_site_fract_y
 _atom_site_fract_z
 _atom_site_occupancy
  Ba  Ba0  1  0.74600000  0.75000000  0.38100000  1.0
  Ba  Ba1  1  0.24600000  0.75000000  0.11900000  1.0
  Ba  Ba2  1  0.25400000  0.25000000  0.61900000  1.0
  Ba  Ba3  1  0.75400000  0.25000000  0.88100000  1.0
  F  F4  1  0.98700000  0.75000000  0.70500000  1.0
  F  F5  1  0.48700000  0.75000000  0.79500000  1.0
  F  F6  1  0.01300000  0.25000000  0.29500000  1.0
  F  F7  1  0.51300000  0.25000000  0.20500000  1.0
  F  F8  1  0.87000000  0.75000000  0.08500000  1.0
  F  F9  1  0.37000000  0.75000000  0.41500000  1.0
  F  F10  1  0.13000000  0.25000000  0.91500000  1.0
  F  F11  1  0.63000000  0.25000000  0.58500000  1.0
