# generated using pymatgen
data_HfIr
_symmetry_space_group_name_H-M   'P 1'
_cell_length_a   5.66380000
_cell_length_b   4.54430000
_cell_length_c   10.32950000
_cell_angle_alpha   90.00000000
_cell_angle_beta   96.60000000
_cell_angle_gamma   90.00000000
_symmetry_Int_Tables_number   1
_chemical_formula_structural   HfIr
_chemical_formula_sum   'Hf2 Ir2'
_cell_volume   264.09881507
_cell_formula_units_Z   2
loop_
 _symmetry_equiv_pos_site_id
 _symmetry_equiv_pos_as_xyz
  1  'x, y, z'
loop_
 _atom_site_type_symbol
 _atom_site_label
 _atom_site_symmetry_multiplicity
 _atom_site_fract_x
 _atom_site_fract_y
 _atom_site_fract_z
 _atom_site_occupancy
  Hf  Hf0  1  0.40910000  0.75000000  0.21990000  1.0
  Hf  Hf1  1  0.59090000  0.25000000  0.78010000  1.0
  Ir  Ir2  1  0.06160000  0.75000000  0.69190000  1.0
  Ir  Ir3  1  0.93840000  0.25000000  0.30810000  1.0
