# generated using pymatgen
data_AsNF6
_symmetry_space_group_name_H-M   'P 1'
_cell_length_a   5.02611354
_cell_length_b   5.02611354
_cell_length_c   5.02611354
_cell_angle_alpha   96.71356480
_cell_angle_beta   96.71356480
_cell_angle_gamma   96.71356480
_symmetry_Int_Tables_number   1
_chemical_formula_structural   AsNF6
_chemical_formula_sum   'As1 N1 F6'
_cell_volume   124.13127214
_cell_formula_units_Z   1
loop_
 _symmetry_equiv_pos_site_id
 _symmetry_equiv_pos_as_xyz
  1  'x, y, z'
loop_
 _atom_site_type_symbol
 _atom_site_label
 _atom_site_symmetry_multiplicity
 _atom_site_fract_x
 _atom_site_fract_y
 _atom_site_fract_z
 _atom_site_occupancy
  As  As0  1  0.00000000  0.00000000  0.00000000  1.0
  N  N1  1  0.50000000  0.50000000  0.50000000  1.0
  F  F2  1  0.78950000  0.73500000  0.08040000  1.0
  F  F3  1  1.26500000  -0.08040000  0.21050000  1.0
  F  F4  1  0.91960000  0.21050000  0.26500000  1.0
  F  F5  1  1.21050000  0.26500000  -0.08040000  1.0
  F  F6  1  0.73500000  1.08040000  -0.21050000  1.0
  F  F7  1  1.08040000  0.78950000  -0.26500000  1.0
