# generated using pymatgen
data_Rb2CrCl4
_symmetry_space_group_name_H-M   'P 1'
_cell_length_a   8.68247789
_cell_length_b   8.68247789
_cell_length_c   8.68247789
_cell_angle_alpha   145.55134559
_cell_angle_beta   145.55134559
_cell_angle_gamma   49.51364910
_symmetry_Int_Tables_number   1
_chemical_formula_structural   Rb2CrCl4
_chemical_formula_sum   'Rb2 Cr1 Cl4'
_cell_volume   208.46747306
_cell_formula_units_Z   1
loop_
 _symmetry_equiv_pos_site_id
 _symmetry_equiv_pos_as_xyz
  1  'x, y, z'
loop_
 _atom_site_type_symbol
 _atom_site_label
 _atom_site_symmetry_multiplicity
 _atom_site_fract_x
 _atom_site_fract_y
 _atom_site_fract_z
 _atom_site_occupancy
  Rb  Rb0  1  0.63800000  0.63800000  1.00000000  1.0
  Rb  Rb1  1  0.36200000  0.36200000  -0.00000000  1.0
  Cr  Cr2  1  0.00000000  0.00000000  0.00000000  1.0
  Cl  Cl3  1  0.84560000  0.34560000  0.50000000  1.0
  Cl  Cl4  1  0.34560000  0.84560000  0.50000000  1.0
  Cl  Cl5  1  0.15440000  0.65440000  0.50000000  1.0
  Cl  Cl6  1  0.65440000  0.15440000  0.50000000  1.0
