# generated using pymatgen
data_Ba2Sn
_symmetry_space_group_name_H-M   'P 1'
_cell_length_a   8.61520000
_cell_length_b   5.69850000
_cell_length_c   10.56900000
_cell_angle_alpha   90.00000000
_cell_angle_beta   90.00000000
_cell_angle_gamma   90.00000000
_symmetry_Int_Tables_number   1
_chemical_formula_structural   Ba2Sn
_chemical_formula_sum   'Ba8 Sn4'
_cell_volume   518.87149709
_cell_formula_units_Z   4
loop_
 _symmetry_equiv_pos_site_id
 _symmetry_equiv_pos_as_xyz
  1  'x, y, z'
loop_
 _atom_site_type_symbol
 _atom_site_label
 _atom_site_symmetry_multiplicity
 _atom_site_fract_x
 _atom_site_fract_y
 _atom_site_fract_z
 _atom_site_occupancy
  Ba  Ba0  1  0.98170000  0.75000000  0.68470000  1.0
  Ba  Ba1  1  0.48170000  0.75000000  0.81530000  1.0
  Ba  Ba2  1  0.01830000  0.25000000  0.31530000  1.0
  Ba  Ba3  1  0.51830000  0.25000000  0.18470000  1.0
  Ba  Ba4  1  0.83800000  0.75000000  0.07890000  1.0
  Ba  Ba5  1  0.33800000  0.75000000  0.42110000  1.0
  Ba  Ba6  1  0.16200000  0.25000000  0.92110000  1.0
  Ba  Ba7  1  0.66200000  0.25000000  0.57890000  1.0
  Sn  Sn8  1  0.75080000  0.75000000  0.39930000  1.0
  Sn  Sn9  1  0.25080000  0.75000000  0.10070000  1.0
  Sn  Sn10  1  0.24920000  0.25000000  0.60070000  1.0
  Sn  Sn11  1  0.74920000  0.25000000  0.89930000  1.0
