# generated using pymatgen
data_ZnS2(NO2)4
_symmetry_space_group_name_H-M   'P 1'
_cell_length_a   7.36000000
_cell_length_b   5.82000000
_cell_length_c   5.33000000
_cell_angle_alpha   99.70000000
_cell_angle_beta   105.70000000
_cell_angle_gamma   87.45000000
_symmetry_Int_Tables_number   1
_chemical_formula_structural   ZnS2(NO2)4
_chemical_formula_sum   'Zn1 S2 N4 O8'
_cell_volume   216.65127467
_cell_formula_units_Z   1
loop_
 _symmetry_equiv_pos_site_id
 _symmetry_equiv_pos_as_xyz
  1  'x, y, z'
loop_
 _atom_site_type_symbol
 _atom_site_label
 _atom_site_symmetry_multiplicity
 _atom_site_fract_x
 _atom_site_fract_y
 _atom_site_fract_z
 _atom_site_occupancy
  Zn  Zn0  1  0.00000000  0.00000000  0.00000000  1.0
  S  S1  1  0.78500000  0.75300000  -0.63000000  1.0
  S  S2  1  0.21500000  0.24700000  -0.37000000  1.0
  N  N3  1  0.25700000  0.82800000  -0.95900000  1.0
  N  N4  1  0.74300000  0.17200000  -0.04100000  1.0
  N  N5  1  0.28800000  0.67200000  -0.74100000  1.0
  N  N6  1  0.71200000  0.32800000  -0.25900000  1.0
  O  O7  1  0.91000000  0.71400000  -0.78600000  1.0
  O  O8  1  0.09000000  0.28600000  -0.21400000  1.0
  O  O9  1  0.66300000  0.95000000  -0.71400000  1.0
  O  O10  1  0.33700000  0.05000000  -0.28600000  1.0
  O  O11  1  0.65300000  0.55100000  -0.63200000  1.0
  O  O12  1  0.34700000  0.44900000  -0.36800000  1.0
  O  O13  1  0.92100000  0.78700000  -0.37200000  1.0
  O  O14  1  0.07900000  0.21300000  -0.62800000  1.0
