# generated using pymatgen
data_Ba9In4H
_symmetry_space_group_name_H-M   'P 1'
_cell_length_a   10.31397331
_cell_length_b   10.31397331
_cell_length_c   10.31397331
_cell_angle_alpha   94.72119710
_cell_angle_beta   94.72119710
_cell_angle_gamma   146.65600708
_symmetry_Int_Tables_number   1
_chemical_formula_structural   Ba9In4H
_chemical_formula_sum   'Ba9 In4 H1'
_cell_volume   577.72915311
_cell_formula_units_Z   1
loop_
 _symmetry_equiv_pos_site_id
 _symmetry_equiv_pos_as_xyz
  1  'x, y, z'
loop_
 _atom_site_type_symbol
 _atom_site_label
 _atom_site_symmetry_multiplicity
 _atom_site_fract_x
 _atom_site_fract_y
 _atom_site_fract_z
 _atom_site_occupancy
  Ba  Ba0  1  0.87580000  0.61060000  0.48640000  1.0
  Ba  Ba1  1  0.61060000  0.12420000  0.73480000  1.0
  Ba  Ba2  1  1.12420000  1.38940000  1.51360000  1.0
  Ba  Ba3  1  0.38940000  0.87580000  1.26520000  1.0
  Ba  Ba4  1  0.81680000  0.89230000  1.70910000  1.0
  Ba  Ba5  1  0.89230000  1.18320000  1.07550000  1.0
  Ba  Ba6  1  0.18320000  0.10770000  0.29090000  1.0
  Ba  Ba7  1  1.10770000  0.81680000  0.92450000  1.0
  Ba  Ba8  1  0.50000000  0.50000000  0.00000000  1.0
  In  In9  1  0.59970000  0.73760000  1.33730000  1.0
  In  In10  1  0.73760000  1.40030000  1.13790000  1.0
  In  In11  1  0.40030000  0.26240000  0.66270000  1.0
  In  In12  1  1.26240000  0.59970000  0.86210000  1.0
  H  H13  1  0.00000000  0.00000000  0.00000000  1.0
