# generated using pymatgen
data_BaGaH5
_symmetry_space_group_name_H-M   'P 1'
_cell_length_a   5.02301000
_cell_length_b   4.60509000
_cell_length_c   8.64471000
_cell_angle_alpha   90.00000000
_cell_angle_beta   90.13100000
_cell_angle_gamma   90.00000000
_symmetry_Int_Tables_number   1
_chemical_formula_structural   BaGaH5
_chemical_formula_sum   'Ba2 Ga2 H10'
_cell_volume   199.96383566
_cell_formula_units_Z   2
loop_
 _symmetry_equiv_pos_site_id
 _symmetry_equiv_pos_as_xyz
  1  'x, y, z'
loop_
 _atom_site_type_symbol
 _atom_site_label
 _atom_site_symmetry_multiplicity
 _atom_site_fract_x
 _atom_site_fract_y
 _atom_site_fract_z
 _atom_site_occupancy
  Ba  Ba0  1  0.24593170  0.24256240  0.33840010  1.0
  Ba  Ba1  1  0.75406830  0.74256240  0.66159990  1.0
  Ga  Ga2  1  0.74382560  0.82932370  0.14480430  1.0
  Ga  Ga3  1  0.25617440  0.32932370  0.85519570  1.0
  H  H4  1  0.74409280  0.17659650  0.15813210  1.0
  H  H5  1  0.25590720  0.67659650  0.84186790  1.0
  H  H6  1  0.99161850  0.72732000  0.25027130  1.0
  H  H7  1  0.00838150  0.22732000  0.74972870  1.0
  H  H8  1  0.47799180  0.72737360  0.23253710  1.0
  H  H9  1  0.52200820  0.22737360  0.76746290  1.0
  H  H10  1  0.76053480  0.70620960  0.97541620  1.0
  H  H11  1  0.23946520  0.20620960  0.02458380  1.0
  H  H12  1  0.74661500  0.23910400  0.48354400  1.0
  H  H13  1  0.25338500  0.73910400  0.51645600  1.0
