# generated using pymatgen
data_BaMn2O5
_symmetry_space_group_name_H-M   'P 1'
_cell_length_a   6.14789852
_cell_length_b   6.14789852
_cell_length_c   4.39000000
_cell_angle_alpha   90.00000000
_cell_angle_beta   90.00000000
_cell_angle_gamma   39.15405703
_symmetry_Int_Tables_number   1
_chemical_formula_structural   BaMn2O5
_chemical_formula_sum   'Ba1 Mn2 O5'
_cell_volume   104.76778900
_cell_formula_units_Z   1
loop_
 _symmetry_equiv_pos_site_id
 _symmetry_equiv_pos_as_xyz
  1  'x, y, z'
loop_
 _atom_site_type_symbol
 _atom_site_label
 _atom_site_symmetry_multiplicity
 _atom_site_fract_x
 _atom_site_fract_y
 _atom_site_fract_z
 _atom_site_occupancy
  Ba  Ba0  1  -0.50000000  0.50000000  0.50000000  1.0
  Mn  Mn1  1  0.83090000  0.84690000  0.00000000  1.0
  Mn  Mn2  1  0.15310000  1.16910000  0.00000000  1.0
  O  O3  1  0.83440000  0.83640000  0.50000000  1.0
  O  O4  1  0.16360000  1.16560000  0.50000000  1.0
  O  O5  1  0.65280000  0.69480000  0.00000000  1.0
  O  O6  1  0.30520000  1.34720000  0.00000000  1.0
  O  O7  1  0.00000000  -0.00000000  0.00000000  1.0
