# generated using pymatgen
data_ClO3
_symmetry_space_group_name_H-M   'P 1'
_cell_length_a   6.33681253
_cell_length_b   6.33681253
_cell_length_c   6.71500000
_cell_angle_alpha   71.00013261
_cell_angle_beta   108.99986739
_cell_angle_gamma   73.51194342
_symmetry_Int_Tables_number   1
_chemical_formula_structural   ClO3
_chemical_formula_sum   'Cl2 O6'
_cell_volume   216.94000887
_cell_formula_units_Z   2
loop_
 _symmetry_equiv_pos_site_id
 _symmetry_equiv_pos_as_xyz
  1  'x, y, z'
loop_
 _atom_site_type_symbol
 _atom_site_label
 _atom_site_symmetry_multiplicity
 _atom_site_fract_x
 _atom_site_fract_y
 _atom_site_fract_z
 _atom_site_occupancy
  Cl  Cl0  1  0.78650000  -0.46390000  0.63140000  1.0
  Cl  Cl1  1  1.46390000  0.21350000  0.13140000  1.0
  O  O2  1  0.99510000  -0.00490000  0.50000000  1.0
  O  O3  1  1.00490000  0.00490000  0.00000000  1.0
  O  O4  1  1.28690000  0.54510000  0.59330000  1.0
  O  O5  1  0.45490000  -0.28690000  0.09330000  1.0
  O  O6  1  0.67130000  -0.09950000  0.82990000  1.0
  O  O7  1  1.09950000  0.32870000  0.32990000  1.0
