# generated using pymatgen
data_BaAs3
_symmetry_space_group_name_H-M   'P 1'
_cell_length_a   6.39304004
_cell_length_b   6.39304004
_cell_length_c   6.01500000
_cell_angle_alpha   71.48517966
_cell_angle_beta   108.51482034
_cell_angle_gamma   105.26717920
_symmetry_Int_Tables_number   1
_chemical_formula_structural   BaAs3
_chemical_formula_sum   'Ba2 As6'
_cell_volume   217.40991503
_cell_formula_units_Z   2
loop_
 _symmetry_equiv_pos_site_id
 _symmetry_equiv_pos_as_xyz
  1  'x, y, z'
loop_
 _atom_site_type_symbol
 _atom_site_label
 _atom_site_symmetry_multiplicity
 _atom_site_fract_x
 _atom_site_fract_y
 _atom_site_fract_z
 _atom_site_occupancy
  Ba  Ba0  1  0.83630000  0.16370000  0.66300000  1.0
  Ba  Ba1  1  1.16370000  -0.16370000  0.33700000  1.0
  As  As2  1  0.37280000  0.09560000  0.81650000  1.0
  As  As3  1  0.90440000  0.62720000  0.81650000  1.0
  As  As4  1  1.09560000  -0.62720000  0.18350000  1.0
  As  As5  1  1.62720000  -0.09560000  0.18350000  1.0
  As  As6  1  0.50420000  0.49580000  0.79690000  1.0
  As  As7  1  1.49580000  -0.49580000  0.20310000  1.0
