# generated using pymatgen
data_BaRuO3
_symmetry_space_group_name_H-M   'P 1'
_cell_length_a   7.92896044
_cell_length_b   7.92896044
_cell_length_c   7.92896044
_cell_angle_alpha   42.52392975
_cell_angle_beta   42.52392975
_cell_angle_gamma   42.52392975
_symmetry_Int_Tables_number   1
_chemical_formula_structural   BaRuO3
_chemical_formula_sum   'Ba3 Ru3 O9'
_cell_volume   206.21087470
_cell_formula_units_Z   3
loop_
 _symmetry_equiv_pos_site_id
 _symmetry_equiv_pos_as_xyz
  1  'x, y, z'
loop_
 _atom_site_type_symbol
 _atom_site_label
 _atom_site_symmetry_multiplicity
 _atom_site_fract_x
 _atom_site_fract_y
 _atom_site_fract_z
 _atom_site_occupancy
  Ba  Ba0  1  0.78250000  0.78250000  0.78250000  1.0
  Ba  Ba1  1  1.21750000  1.21750000  0.21750000  1.0
  Ba  Ba2  1  0.00000000  0.00000000  0.00000000  1.0
  Ru  Ru3  1  1.61650000  0.61650000  0.61650000  1.0
  Ru  Ru4  1  1.38350000  0.38350000  0.38350000  1.0
  Ru  Ru5  1  1.50000000  0.50000000  0.50000000  1.0
  O  O6  1  1.27950000  0.27950000  0.76630000  1.0
  O  O7  1  1.27950000  0.76630000  0.27950000  1.0
  O  O8  1  1.23370000  0.72050000  0.72050000  1.0
  O  O9  1  1.72050000  0.23370000  0.72050000  1.0
  O  O10  1  1.72050000  0.72050000  0.23370000  1.0
  O  O11  1  1.76630000  0.27950000  0.27950000  1.0
  O  O12  1  0.50000000  0.00000000  -0.50000000  1.0
  O  O13  1  0.50000000  -0.50000000  -0.00000000  1.0
  O  O14  1  -0.00000000  0.50000000  -0.50000000  1.0
