# generated using pymatgen
data_BaMnF4
_symmetry_space_group_name_H-M   'P 1'
_cell_length_a   4.22010000
_cell_length_b   6.01000000
_cell_length_c   7.86820000
_cell_angle_alpha   90.00000000
_cell_angle_beta   105.55500000
_cell_angle_gamma   90.00000000
_symmetry_Int_Tables_number   1
_chemical_formula_structural   BaMnF4
_chemical_formula_sum   'Ba2 Mn2 F8'
_cell_volume   192.25041725
_cell_formula_units_Z   2
loop_
 _symmetry_equiv_pos_site_id
 _symmetry_equiv_pos_as_xyz
  1  'x, y, z'
loop_
 _atom_site_type_symbol
 _atom_site_label
 _atom_site_symmetry_multiplicity
 _atom_site_fract_x
 _atom_site_fract_y
 _atom_site_fract_z
 _atom_site_occupancy
  Ba  Ba0  1  0.65630000  0.88670000  0.31090000  1.0
  Ba  Ba1  1  0.34370000  0.38670000  0.68910000  1.0
  Mn  Mn2  1  0.91310000  0.83970000  0.83220000  1.0
  Mn  Mn3  1  0.08690000  0.33970000  0.16780000  1.0
  F  F4  1  0.97060000  0.50000000  0.92760000  1.0
  F  F5  1  0.02940000  0.00000000  0.07240000  1.0
  F  F6  1  0.84720000  0.11340000  0.67200000  1.0
  F  F7  1  0.15280000  0.61340000  0.32800000  1.0
  F  F8  1  0.78540000  0.63710000  0.60000000  1.0
  F  F9  1  0.21460000  0.13710000  0.40000000  1.0
  F  F10  1  0.41840000  0.81020000  0.84400000  1.0
  F  F11  1  0.58160000  0.31020000  0.15600000  1.0
