# generated using pymatgen
data_K2BaCdSb2
_symmetry_space_group_name_H-M   'P 1'
_cell_length_a   5.03660000
_cell_length_b   9.81830000
_cell_length_c   8.49240000
_cell_angle_alpha   90.00000000
_cell_angle_beta   90.00000000
_cell_angle_gamma   90.00000000
_symmetry_Int_Tables_number   1
_chemical_formula_structural   K2BaCdSb2
_chemical_formula_sum   'K4 Ba2 Cd2 Sb4'
_cell_volume   419.95639667
_cell_formula_units_Z   2
loop_
 _symmetry_equiv_pos_site_id
 _symmetry_equiv_pos_as_xyz
  1  'x, y, z'
loop_
 _atom_site_type_symbol
 _atom_site_label
 _atom_site_symmetry_multiplicity
 _atom_site_fract_x
 _atom_site_fract_y
 _atom_site_fract_z
 _atom_site_occupancy
  K  K0  1  0.50000000  0.57670000  0.47940000  1.0
  K  K1  1  0.50000000  0.42330000  0.97940000  1.0
  K  K2  1  0.00000000  0.65950000  0.15610000  1.0
  K  K3  1  0.00000000  0.34050000  0.65610000  1.0
  Ba  Ba4  1  0.00000000  0.95040000  0.50000000  1.0
  Ba  Ba5  1  0.00000000  0.04960000  0.00000000  1.0
  Cd  Cd6  1  0.50000000  0.82310000  0.84590000  1.0
  Cd  Cd7  1  0.50000000  0.17690000  0.34590000  1.0
  Sb  Sb8  1  0.50000000  0.88680000  0.21120000  1.0
  Sb  Sb9  1  0.50000000  0.11320000  0.71120000  1.0
  Sb  Sb10  1  0.00000000  0.31860000  0.26180000  1.0
  Sb  Sb11  1  0.00000000  0.68140000  0.76180000  1.0
