# generated using pymatgen
data_BaH2
_symmetry_space_group_name_H-M   'P 1'
_cell_length_a   6.78900000
_cell_length_b   4.17100000
_cell_length_c   7.85200000
_cell_angle_alpha   90.00000000
_cell_angle_beta   90.00000000
_cell_angle_gamma   90.00000000
_symmetry_Int_Tables_number   1
_chemical_formula_structural   BaH2
_chemical_formula_sum   'Ba4 H8'
_cell_volume   222.34444799
_cell_formula_units_Z   4
loop_
 _symmetry_equiv_pos_site_id
 _symmetry_equiv_pos_as_xyz
  1  'x, y, z'
loop_
 _atom_site_type_symbol
 _atom_site_label
 _atom_site_symmetry_multiplicity
 _atom_site_fract_x
 _atom_site_fract_y
 _atom_site_fract_z
 _atom_site_occupancy
  Ba  Ba0  1  0.74000000  0.75000000  0.38700000  1.0
  Ba  Ba1  1  0.24000000  0.75000000  0.11300000  1.0
  Ba  Ba2  1  0.26000000  0.25000000  0.61300000  1.0
  Ba  Ba3  1  0.76000000  0.25000000  0.88700000  1.0
  H  H4  1  0.84500000  0.75000000  0.07300000  1.0
  H  H5  1  0.34500000  0.75000000  0.42700000  1.0
  H  H6  1  0.15500000  0.25000000  0.92700000  1.0
  H  H7  1  0.65500000  0.25000000  0.57300000  1.0
  H  H8  1  0.97100000  0.75000000  0.68700000  1.0
  H  H9  1  0.47100000  0.75000000  0.81300000  1.0
  H  H10  1  0.02900000  0.25000000  0.31300000  1.0
  H  H11  1  0.52900000  0.25000000  0.18700000  1.0
