# generated using pymatgen
data_FeNiF6
_symmetry_space_group_name_H-M   'P 1'
_cell_length_a   5.26998012
_cell_length_b   5.26998012
_cell_length_c   5.26998012
_cell_angle_alpha   57.09980601
_cell_angle_beta   57.09980601
_cell_angle_gamma   57.09980601
_symmetry_Int_Tables_number   1
_chemical_formula_structural   FeNiF6
_chemical_formula_sum   'Fe1 Ni1 F6'
_cell_volume   96.57588002
_cell_formula_units_Z   1
loop_
 _symmetry_equiv_pos_site_id
 _symmetry_equiv_pos_as_xyz
  1  'x, y, z'
loop_
 _atom_site_type_symbol
 _atom_site_label
 _atom_site_symmetry_multiplicity
 _atom_site_fract_x
 _atom_site_fract_y
 _atom_site_fract_z
 _atom_site_occupancy
  Fe  Fe0  1  0.50000000  0.50000000  -0.50000000  1.0
  Ni  Ni1  1  0.00000000  0.00000000  0.00000000  1.0
  F  F2  1  0.13390000  0.76130000  -0.65550000  1.0
  F  F3  1  0.65550000  -0.13390000  0.23870000  1.0
  F  F4  1  1.23870000  -0.34450000  -0.13390000  1.0
  F  F5  1  0.86610000  0.23870000  -0.34450000  1.0
  F  F6  1  0.34450000  0.13390000  -0.23870000  1.0
  F  F7  1  0.76130000  0.34450000  -0.86610000  1.0
