# generated using pymatgen
data_Tl2CoBr4
_symmetry_space_group_name_H-M   'P 1'
_cell_length_a   6.91000000
_cell_length_b   7.37600000
_cell_length_c   9.52200000
_cell_angle_alpha   90.00000000
_cell_angle_beta   110.20000000
_cell_angle_gamma   90.00000000
_symmetry_Int_Tables_number   1
_chemical_formula_structural   Tl2CoBr4
_chemical_formula_sum   'Tl4 Co2 Br8'
_cell_volume   455.46832593
_cell_formula_units_Z   2
loop_
 _symmetry_equiv_pos_site_id
 _symmetry_equiv_pos_as_xyz
  1  'x, y, z'
loop_
 _atom_site_type_symbol
 _atom_site_label
 _atom_site_symmetry_multiplicity
 _atom_site_fract_x
 _atom_site_fract_y
 _atom_site_fract_z
 _atom_site_occupancy
  Tl  Tl0  1  0.78120000  0.75000000  0.44840000  1.0
  Tl  Tl1  1  0.21880000  0.25000000  0.55160000  1.0
  Tl  Tl2  1  0.73140000  0.75000000  0.93190000  1.0
  Tl  Tl3  1  0.26860000  0.25000000  0.06810000  1.0
  Co  Co4  1  0.22530000  0.75000000  0.29960000  1.0
  Co  Co5  1  0.77470000  0.25000000  0.70040000  1.0
  Br  Br6  1  0.99410000  0.99720000  0.76040000  1.0
  Br  Br7  1  0.99410000  0.50280000  0.76040000  1.0
  Br  Br8  1  0.00590000  0.49720000  0.23960000  1.0
  Br  Br9  1  0.00590000  0.00280000  0.23960000  1.0
  Br  Br10  1  0.42030000  0.75000000  0.12750000  1.0
  Br  Br11  1  0.57970000  0.25000000  0.87250000  1.0
  Br  Br12  1  0.39930000  0.75000000  0.57450000  1.0
  Br  Br13  1  0.60070000  0.25000000  0.42550000  1.0
