# generated using pymatgen
data_IN2
_symmetry_space_group_name_H-M   'P 1'
_cell_length_a   7.43000000
_cell_length_b   7.51000000
_cell_length_c   9.58000000
_cell_angle_alpha   90.00000000
_cell_angle_beta   90.00000000
_cell_angle_gamma   90.00000000
_symmetry_Int_Tables_number   1
_chemical_formula_structural   IN2
_chemical_formula_sum   'I4 N8'
_cell_volume   534.55729400
_cell_formula_units_Z   4
loop_
 _symmetry_equiv_pos_site_id
 _symmetry_equiv_pos_as_xyz
  1  'x, y, z'
loop_
 _atom_site_type_symbol
 _atom_site_label
 _atom_site_symmetry_multiplicity
 _atom_site_fract_x
 _atom_site_fract_y
 _atom_site_fract_z
 _atom_site_occupancy
  I  I0  1  0.50000000  0.48400000  0.75000000  1.0
  I  I1  1  0.50000000  0.51600000  0.25000000  1.0
  I  I2  1  0.00000000  0.98400000  0.75000000  1.0
  I  I3  1  0.00000000  0.01600000  0.25000000  1.0
  N  N4  1  0.13200000  0.36700000  0.50300000  1.0
  N  N5  1  0.13200000  0.63300000  0.00300000  1.0
  N  N6  1  0.63200000  0.86700000  0.99700000  1.0
  N  N7  1  0.63200000  0.13300000  0.49700000  1.0
  N  N8  1  0.86800000  0.36700000  0.99700000  1.0
  N  N9  1  0.86800000  0.63300000  0.49700000  1.0
  N  N10  1  0.36800000  0.86700000  0.50300000  1.0
  N  N11  1  0.36800000  0.13300000  0.00300000  1.0
