# generated using pymatgen
data_BaCaSn
_symmetry_space_group_name_H-M   'P 1'
_cell_length_a   8.83000000
_cell_length_b   5.31000000
_cell_length_c   9.69000000
_cell_angle_alpha   90.00000000
_cell_angle_beta   90.00000000
_cell_angle_gamma   90.00000000
_symmetry_Int_Tables_number   1
_chemical_formula_structural   BaCaSn
_chemical_formula_sum   'Ba4 Ca4 Sn4'
_cell_volume   454.33793700
_cell_formula_units_Z   4
loop_
 _symmetry_equiv_pos_site_id
 _symmetry_equiv_pos_as_xyz
  1  'x, y, z'
loop_
 _atom_site_type_symbol
 _atom_site_label
 _atom_site_symmetry_multiplicity
 _atom_site_fract_x
 _atom_site_fract_y
 _atom_site_fract_z
 _atom_site_occupancy
  Ba  Ba0  1  0.97900000  0.75000000  0.68100000  1.0
  Ba  Ba1  1  0.47900000  0.75000000  0.81900000  1.0
  Ba  Ba2  1  0.02100000  0.25000000  0.31900000  1.0
  Ba  Ba3  1  0.52100000  0.25000000  0.18100000  1.0
  Ca  Ca4  1  0.85400000  0.75000000  0.07000000  1.0
  Ca  Ca5  1  0.35400000  0.75000000  0.43000000  1.0
  Ca  Ca6  1  0.14600000  0.25000000  0.93000000  1.0
  Ca  Ca7  1  0.64600000  0.25000000  0.57000000  1.0
  Sn  Sn8  1  0.72600000  0.75000000  0.39300000  1.0
  Sn  Sn9  1  0.22600000  0.75000000  0.10700000  1.0
  Sn  Sn10  1  0.27400000  0.25000000  0.60700000  1.0
  Sn  Sn11  1  0.77400000  0.25000000  0.89300000  1.0
