# generated using pymatgen
data_IrN5(Cl2O)3
_symmetry_space_group_name_H-M   'P 1'
_cell_length_a   9.11646861
_cell_length_b   9.11646861
_cell_length_c   9.11646861
_cell_angle_alpha   44.47367813
_cell_angle_beta   44.47367813
_cell_angle_gamma   44.47367813
_symmetry_Int_Tables_number   1
_chemical_formula_structural   IrN5(Cl2O)3
_chemical_formula_sum   'Ir1 N5 Cl6 O3'
_cell_volume   338.09804969
_cell_formula_units_Z   1
loop_
 _symmetry_equiv_pos_site_id
 _symmetry_equiv_pos_as_xyz
  1  'x, y, z'
loop_
 _atom_site_type_symbol
 _atom_site_label
 _atom_site_symmetry_multiplicity
 _atom_site_fract_x
 _atom_site_fract_y
 _atom_site_fract_z
 _atom_site_occupancy
  Ir  Ir0  1  -0.00000000  -0.00000000  -0.00000000  1.0
  N  N1  1  0.61110000  0.61110000  -0.38890000  1.0
  N  N2  1  0.38890000  0.38890000  -0.61110000  1.0
  N  N3  1  0.83330000  -0.16670000  -0.16670000  1.0
  N  N4  1  0.16670000  0.16670000  0.16670000  1.0
  N  N5  1  0.50000000  0.50000000  -0.50000000  1.0
  Cl  Cl6  1  1.10670000  0.10670000  -0.39340000  1.0
  Cl  Cl7  1  0.60660000  0.10670000  0.10670000  1.0
  Cl  Cl8  1  1.10670000  -0.39340000  0.10670000  1.0
  Cl  Cl9  1  0.89330000  -0.10670000  -0.60660000  1.0
  Cl  Cl10  1  0.39340000  -0.10670000  -0.10670000  1.0
  Cl  Cl11  1  0.89330000  -0.60660000  -0.10670000  1.0
  O  O12  1  0.38000000  0.38000000  -0.26000000  1.0
  O  O13  1  0.74000000  0.38000000  -0.62000000  1.0
  O  O14  1  0.38000000  0.74000000  -0.62000000  1.0
