# generated using pymatgen
data_Fe2O3
_symmetry_space_group_name_H-M   'P 1'
_cell_length_a   5.03250000
_cell_length_b   5.03250000
_cell_length_c   13.74040000
_cell_angle_alpha   90.00000000
_cell_angle_beta   90.00000000
_cell_angle_gamma   120.00000000
_symmetry_Int_Tables_number   1
_chemical_formula_structural   Fe2O3
_chemical_formula_sum   'Fe4 O6'
_cell_volume   301.36830436
_cell_formula_units_Z   2
loop_
 _symmetry_equiv_pos_site_id
 _symmetry_equiv_pos_as_xyz
  1  'x, y, z'
loop_
 _atom_site_type_symbol
 _atom_site_label
 _atom_site_symmetry_multiplicity
 _atom_site_fract_x
 _atom_site_fract_y
 _atom_site_fract_z
 _atom_site_occupancy
  Fe  Fe0  1  0.00000000  0.00000000  0.35500000  1.0
  Fe  Fe1  1  0.00000000  0.00000000  0.64500000  1.0
  Fe  Fe2  1  0.00000000  0.00000000  0.14500000  1.0
  Fe  Fe3  1  0.00000000  0.00000000  0.85500000  1.0
  O  O4  1  0.66660000  0.63530000  0.08330000  1.0
  O  O5  1  0.63530000  0.96870000  0.91670000  1.0
  O  O6  1  0.96870000  0.33340000  0.08330000  1.0
  O  O7  1  0.36470000  0.03130000  0.08330000  1.0
  O  O8  1  0.33340000  0.36470000  0.91670000  1.0
  O  O9  1  0.03130000  0.66660000  0.91670000  1.0
