# generated using pymatgen
data_BaCaGe
_symmetry_space_group_name_H-M   'P 1'
_cell_length_a   8.54000000
_cell_length_b   5.10000000
_cell_length_c   9.21000000
_cell_angle_alpha   90.00000000
_cell_angle_beta   90.00000000
_cell_angle_gamma   90.00000000
_symmetry_Int_Tables_number   1
_chemical_formula_structural   BaCaGe
_chemical_formula_sum   'Ba4 Ca4 Ge4'
_cell_volume   401.13234000
_cell_formula_units_Z   4
loop_
 _symmetry_equiv_pos_site_id
 _symmetry_equiv_pos_as_xyz
  1  'x, y, z'
loop_
 _atom_site_type_symbol
 _atom_site_label
 _atom_site_symmetry_multiplicity
 _atom_site_fract_x
 _atom_site_fract_y
 _atom_site_fract_z
 _atom_site_occupancy
  Ba  Ba0  1  0.97600000  0.75000000  0.67700000  1.0
  Ba  Ba1  1  0.47600000  0.75000000  0.82300000  1.0
  Ba  Ba2  1  0.02400000  0.25000000  0.32300000  1.0
  Ba  Ba3  1  0.52400000  0.25000000  0.17700000  1.0
  Ca  Ca4  1  0.85800000  0.75000000  0.07200000  1.0
  Ca  Ca5  1  0.35800000  0.75000000  0.42800000  1.0
  Ca  Ca6  1  0.14200000  0.25000000  0.92800000  1.0
  Ca  Ca7  1  0.64200000  0.25000000  0.57200000  1.0
  Ge  Ge8  1  0.72200000  0.75000000  0.39200000  1.0
  Ge  Ge9  1  0.22200000  0.75000000  0.10800000  1.0
  Ge  Ge10  1  0.27800000  0.25000000  0.60800000  1.0
  Ge  Ge11  1  0.77800000  0.25000000  0.89200000  1.0
