# generated using pymatgen
data_O2
_symmetry_space_group_name_H-M   'P 1'
_cell_length_a   6.54595320
_cell_length_b   6.54595320
_cell_length_c   4.51000000
_cell_angle_alpha   71.60060939
_cell_angle_beta   108.39939061
_cell_angle_gamma   87.22271965
_symmetry_Int_Tables_number   1
_chemical_formula_structural   O2
_chemical_formula_sum   O8
_cell_volume   171.62862564
_cell_formula_units_Z   4
loop_
 _symmetry_equiv_pos_site_id
 _symmetry_equiv_pos_as_xyz
  1  'x, y, z'
loop_
 _atom_site_type_symbol
 _atom_site_label
 _atom_site_symmetry_multiplicity
 _atom_site_fract_x
 _atom_site_fract_y
 _atom_site_fract_z
 _atom_site_occupancy
  O  O0  1  1.18840000  0.17340000  0.59350000  1.0
  O  O1  1  1.17340000  0.18840000  0.90650000  1.0
  O  O2  1  0.81160000  -0.17340000  0.40650000  1.0
  O  O3  1  0.82660000  -0.18840000  0.09350000  1.0
  O  O4  1  0.78420000  -0.61980000  0.18900000  1.0
  O  O5  1  0.38020000  -0.21580000  0.31100000  1.0
  O  O6  1  1.21580000  0.61980000  0.81100000  1.0
  O  O7  1  1.61980000  0.21580000  0.68900000  1.0
