# generated using pymatgen
data_Ba2GaGeN
_symmetry_space_group_name_H-M   'P 1'
_cell_length_a   7.24900000
_cell_length_b   4.21000000
_cell_length_c   9.31400000
_cell_angle_alpha   90.00000000
_cell_angle_beta   108.87000000
_cell_angle_gamma   90.00000000
_symmetry_Int_Tables_number   1
_chemical_formula_structural   Ba2GaGeN
_chemical_formula_sum   'Ba4 Ga2 Ge2 N2'
_cell_volume   268.97043129
_cell_formula_units_Z   2
loop_
 _symmetry_equiv_pos_site_id
 _symmetry_equiv_pos_as_xyz
  1  'x, y, z'
loop_
 _atom_site_type_symbol
 _atom_site_label
 _atom_site_symmetry_multiplicity
 _atom_site_fract_x
 _atom_site_fract_y
 _atom_site_fract_z
 _atom_site_occupancy
  Ba  Ba0  1  0.20380000  0.25000000  0.96160000  1.0
  Ba  Ba1  1  0.79620000  0.75000000  0.03840000  1.0
  Ba  Ba2  1  0.18920000  0.25000000  0.38270000  1.0
  Ba  Ba3  1  0.81080000  0.75000000  0.61730000  1.0
  Ga  Ga4  1  0.53910000  0.25000000  0.75360000  1.0
  Ga  Ga5  1  0.46090000  0.75000000  0.24640000  1.0
  Ge  Ge6  1  0.65970000  0.25000000  0.29660000  1.0
  Ge  Ge7  1  0.34030000  0.75000000  0.70340000  1.0
  N  N8  1  0.81500000  0.25000000  0.82600000  1.0
  N  N9  1  0.18500000  0.75000000  0.17400000  1.0
