# generated using pymatgen
data_AlSe2NO8
_symmetry_space_group_name_H-M   'P 1'
_cell_length_a   4.89200000
_cell_length_b   4.89200000
_cell_length_c   8.47000000
_cell_angle_alpha   90.00000000
_cell_angle_beta   90.00000000
_cell_angle_gamma   120.00000000
_symmetry_Int_Tables_number   1
_chemical_formula_structural   AlSe2NO8
_chemical_formula_sum   'Al1 Se2 N1 O8'
_cell_volume   175.54438345
_cell_formula_units_Z   1
loop_
 _symmetry_equiv_pos_site_id
 _symmetry_equiv_pos_as_xyz
  1  'x, y, z'
loop_
 _atom_site_type_symbol
 _atom_site_label
 _atom_site_symmetry_multiplicity
 _atom_site_fract_x
 _atom_site_fract_y
 _atom_site_fract_z
 _atom_site_occupancy
  Al  Al0  1  0.00000000  0.00000000  0.00000000  1.0
  Se  Se1  1  0.33333333  0.66666667  0.20200000  1.0
  Se  Se2  1  0.66666667  0.33333333  0.79800000  1.0
  N  N3  1  0.00000000  0.00000000  0.50000000  1.0
  O  O4  1  0.27600000  0.92100000  0.14400000  1.0
  O  O5  1  0.92100000  0.27600000  0.85600000  1.0
  O  O6  1  0.64500000  0.72400000  0.14400000  1.0
  O  O7  1  0.07900000  0.35500000  0.14400000  1.0
  O  O8  1  0.72400000  0.64500000  0.85600000  1.0
  O  O9  1  0.35500000  0.07900000  0.85600000  1.0
  O  O10  1  0.33333333  0.66666667  0.38200000  1.0
  O  O11  1  0.66666667  0.33333333  0.61800000  1.0
