# generated using pymatgen
data_BaPdO5
_symmetry_space_group_name_H-M   'P 1'
_cell_length_a   5.52900000
_cell_length_b   6.35900000
_cell_length_c   8.48970000
_cell_angle_alpha   90.00000000
_cell_angle_beta   108.79200000
_cell_angle_gamma   90.00000000
_symmetry_Int_Tables_number   1
_chemical_formula_structural   BaPdO5
_chemical_formula_sum   'Ba2 Pd2 O10'
_cell_volume   282.57744697
_cell_formula_units_Z   2
loop_
 _symmetry_equiv_pos_site_id
 _symmetry_equiv_pos_as_xyz
  1  'x, y, z'
loop_
 _atom_site_type_symbol
 _atom_site_label
 _atom_site_symmetry_multiplicity
 _atom_site_fract_x
 _atom_site_fract_y
 _atom_site_fract_z
 _atom_site_occupancy
  Ba  Ba0  1  -0.00000000  0.06740000  0.50000000  1.0
  Ba  Ba1  1  0.00000000  0.00000000  0.00000000  1.0
  Pd  Pd2  1  0.99910000  0.52900000  0.74940000  1.0
  Pd  Pd3  1  0.00090000  0.52900000  0.25060000  1.0
  O  O4  1  0.83500000  0.24540000  0.73000000  1.0
  O  O5  1  0.16500000  0.24540000  0.27000000  1.0
  O  O6  1  0.81500000  0.79940000  0.23300000  1.0
  O  O7  1  0.18500000  0.79940000  0.76700000  1.0
  O  O8  1  0.72000000  0.37640000  0.29600000  1.0
  O  O9  1  0.28000000  0.37640000  0.70400000  1.0
  O  O10  1  0.71200000  0.67040000  0.80700000  1.0
  O  O11  1  0.28800000  0.67040000  0.19300000  1.0
  O  O12  1  0.50000000  0.86340000  0.50000000  1.0
  O  O13  1  0.50000000  0.15840000  0.00000000  1.0
