# generated using pymatgen
data_TlFe2S3
_symmetry_space_group_name_H-M   'P 1'
_cell_length_a   7.03827758
_cell_length_b   7.03827758
_cell_length_c   5.41200000
_cell_angle_alpha   90.00000000
_cell_angle_beta   90.00000000
_cell_angle_gamma   99.63006034
_symmetry_Int_Tables_number   1
_chemical_formula_structural   TlFe2S3
_chemical_formula_sum   'Tl2 Fe4 S6'
_cell_volume   264.31824289
_cell_formula_units_Z   2
loop_
 _symmetry_equiv_pos_site_id
 _symmetry_equiv_pos_as_xyz
  1  'x, y, z'
loop_
 _atom_site_type_symbol
 _atom_site_label
 _atom_site_symmetry_multiplicity
 _atom_site_fract_x
 _atom_site_fract_y
 _atom_site_fract_z
 _atom_site_occupancy
  Tl  Tl0  1  -0.33910000  1.33910000  0.25000000  1.0
  Tl  Tl1  1  0.33910000  0.66090000  0.75000000  1.0
  Fe  Fe2  1  0.85180000  0.85180000  0.50000000  1.0
  Fe  Fe3  1  0.85180000  0.85180000  0.00000000  1.0
  Fe  Fe4  1  0.14820000  0.14820000  0.50000000  1.0
  Fe  Fe5  1  0.14820000  0.14820000  0.00000000  1.0
  S  S6  1  0.12120000  0.87880000  0.25000000  1.0
  S  S7  1  -0.12120000  1.12120000  0.75000000  1.0
  S  S8  1  0.16360000  0.39820000  0.25000000  1.0
  S  S9  1  -0.60180000  1.16360000  0.75000000  1.0
  S  S10  1  0.60180000  0.83640000  0.25000000  1.0
  S  S11  1  -0.16360000  1.60180000  0.75000000  1.0
