# generated using pymatgen
data_N2O
_symmetry_space_group_name_H-M   'P 1'
_cell_length_a   3.39600000
_cell_length_b   9.25400000
_cell_length_c   9.00600000
_cell_angle_alpha   90.00000000
_cell_angle_beta   94.40000000
_cell_angle_gamma   90.00000000
_symmetry_Int_Tables_number   1
_chemical_formula_structural   N2O
_chemical_formula_sum   'N8 O4'
_cell_volume   282.19366241
_cell_formula_units_Z   4
loop_
 _symmetry_equiv_pos_site_id
 _symmetry_equiv_pos_as_xyz
  1  'x, y, z'
loop_
 _atom_site_type_symbol
 _atom_site_label
 _atom_site_symmetry_multiplicity
 _atom_site_fract_x
 _atom_site_fract_y
 _atom_site_fract_z
 _atom_site_occupancy
  N  N0  1  0.71400000  0.37100000  0.41300000  1.0
  N  N1  1  0.71400000  0.12900000  0.91300000  1.0
  N  N2  1  0.28600000  0.87100000  0.08700000  1.0
  N  N3  1  0.28600000  0.62900000  0.58700000  1.0
  N  N4  1  0.66500000  0.87500000  0.39800000  1.0
  N  N5  1  0.66500000  0.62500000  0.89800000  1.0
  N  N6  1  0.33500000  0.37500000  0.10200000  1.0
  N  N7  1  0.33500000  0.12500000  0.60200000  1.0
  O  O8  1  0.96100000  0.13300000  0.26200000  1.0
  O  O9  1  0.96100000  0.36700000  0.76200000  1.0
  O  O10  1  0.03900000  0.63300000  0.23800000  1.0
  O  O11  1  0.03900000  0.86700000  0.73800000  1.0
