# generated using pymatgen
data_FeCO3
_symmetry_space_group_name_H-M   'P 1'
_cell_length_a   4.94189316
_cell_length_b   4.94189316
_cell_length_c   4.94189316
_cell_angle_alpha   52.45492907
_cell_angle_beta   52.45492907
_cell_angle_gamma   52.45492907
_symmetry_Int_Tables_number   1
_chemical_formula_structural   FeCO3
_chemical_formula_sum   'Fe2 C2 O6'
_cell_volume   70.22387996
_cell_formula_units_Z   2
loop_
 _symmetry_equiv_pos_site_id
 _symmetry_equiv_pos_as_xyz
  1  'x, y, z'
loop_
 _atom_site_type_symbol
 _atom_site_label
 _atom_site_symmetry_multiplicity
 _atom_site_fract_x
 _atom_site_fract_y
 _atom_site_fract_z
 _atom_site_occupancy
  Fe  Fe0  1  1.00000000  0.00000000  0.00000000  1.0
  Fe  Fe1  1  0.50000000  0.50000000  0.50000000  1.0
  C  C2  1  0.75000000  0.75000000  -0.25000000  1.0
  C  C3  1  0.25000000  0.25000000  0.25000000  1.0
  O  O4  1  0.46250000  0.75000000  0.03750000  1.0
  O  O5  1  0.96250000  -0.46250000  0.25000000  1.0
  O  O6  1  0.25000000  0.96250000  -0.46250000  1.0
  O  O7  1  0.75000000  1.03750000  -0.53750000  1.0
  O  O8  1  0.53750000  0.25000000  -0.03750000  1.0
  O  O9  1  1.03750000  0.46250000  -0.25000000  1.0
