# generated using pymatgen
data_Ga(NF2)3
_symmetry_space_group_name_H-M   'P 1'
_cell_length_a   6.39995277
_cell_length_b   6.39995277
_cell_length_c   6.39995277
_cell_angle_alpha   60.00000000
_cell_angle_beta   60.00000000
_cell_angle_gamma   60.00000000
_symmetry_Int_Tables_number   1
_chemical_formula_structural   Ga(NF2)3
_chemical_formula_sum   'Ga1 N3 F6'
_cell_volume   185.35969594
_cell_formula_units_Z   1
loop_
 _symmetry_equiv_pos_site_id
 _symmetry_equiv_pos_as_xyz
  1  'x, y, z'
loop_
 _atom_site_type_symbol
 _atom_site_label
 _atom_site_symmetry_multiplicity
 _atom_site_fract_x
 _atom_site_fract_y
 _atom_site_fract_z
 _atom_site_occupancy
  Ga  Ga0  1  0.00000000  0.00000000  0.00000000  1.0
  N  N1  1  -0.50000000  0.50000000  0.50000000  1.0
  N  N2  1  0.75000000  0.75000000  -0.25000000  1.0
  N  N3  1  1.25000000  0.25000000  0.25000000  1.0
  F  F4  1  -0.79000000  0.79000000  0.79000000  1.0
  F  F5  1  -0.21000000  0.21000000  0.79000000  1.0
  F  F6  1  0.79000000  0.79000000  -0.79000000  1.0
  F  F7  1  0.21000000  1.21000000  -0.21000000  1.0
  F  F8  1  0.21000000  -0.21000000  1.21000000  1.0
  F  F9  1  -0.21000000  0.21000000  0.21000000  1.0
