# generated using pymatgen
data_Ni(ClO3)2
_symmetry_space_group_name_H-M   'P 1'
_cell_length_a   6.21199243
_cell_length_b   6.21199243
_cell_length_c   6.57000000
_cell_angle_alpha   63.99756531
_cell_angle_beta   116.00243469
_cell_angle_gamma   110.85469590
_symmetry_Int_Tables_number   1
_chemical_formula_structural   Ni(ClO3)2
_chemical_formula_sum   'Ni1 Cl2 O6'
_cell_volume   200.54542273
_cell_formula_units_Z   1
loop_
 _symmetry_equiv_pos_site_id
 _symmetry_equiv_pos_as_xyz
  1  'x, y, z'
loop_
 _atom_site_type_symbol
 _atom_site_label
 _atom_site_symmetry_multiplicity
 _atom_site_fract_x
 _atom_site_fract_y
 _atom_site_fract_z
 _atom_site_occupancy
  Ni  Ni0  1  0.00000000  0.00000000  0.00000000  1.0
  Cl  Cl1  1  0.72900000  0.27100000  0.83300000  1.0
  Cl  Cl2  1  1.27100000  -0.27100000  0.16700000  1.0
  O  O3  1  1.76080000  -0.17680000  0.74900000  1.0
  O  O4  1  1.17680000  -0.76080000  0.74900000  1.0
  O  O5  1  0.82320000  0.76080000  0.25100000  1.0
  O  O6  1  0.23920000  0.17680000  0.25100000  1.0
  O  O7  1  0.71200000  0.28800000  0.29800000  1.0
  O  O8  1  1.28800000  -0.28800000  0.70200000  1.0
