# generated using pymatgen
data_Co2ClO3
_symmetry_space_group_name_H-M   'P 1'
_cell_length_a   6.24327731
_cell_length_b   6.24327731
_cell_length_c   6.24327731
_cell_angle_alpha   66.45179499
_cell_angle_beta   66.45179499
_cell_angle_gamma   66.45179499
_symmetry_Int_Tables_number   1
_chemical_formula_structural   Co2ClO3
_chemical_formula_sum   'Co4 Cl2 O6'
_cell_volume   196.00023916
_cell_formula_units_Z   2
loop_
 _symmetry_equiv_pos_site_id
 _symmetry_equiv_pos_as_xyz
  1  'x, y, z'
loop_
 _atom_site_type_symbol
 _atom_site_label
 _atom_site_symmetry_multiplicity
 _atom_site_fract_x
 _atom_site_fract_y
 _atom_site_fract_z
 _atom_site_occupancy
  Co  Co0  1  1.00000000  1.50000000  0.00000000  1.0
  Co  Co1  1  1.00000000  0.00000000  -0.50000000  1.0
  Co  Co2  1  0.50000000  0.00000000  0.00000000  1.0
  Co  Co3  1  0.00000000  0.00000000  0.00000000  1.0
  Cl  Cl4  1  0.71720000  0.71720000  -0.28280000  1.0
  Cl  Cl5  1  1.28280000  1.28280000  0.28280000  1.0
  O  O6  1  0.23030000  0.23030000  -0.16980000  1.0
  O  O7  1  0.23030000  0.83020000  -0.76970000  1.0
  O  O8  1  1.16980000  -0.23030000  -0.23030000  1.0
  O  O9  1  0.76970000  0.16980000  -0.23030000  1.0
  O  O10  1  0.76970000  -0.23030000  0.16980000  1.0
  O  O11  1  0.83020000  0.23030000  -0.76970000  1.0
