# generated using pymatgen
data_BaAg
_symmetry_space_group_name_H-M   'P 1'
_cell_length_a   8.65700000
_cell_length_b   4.98200000
_cell_length_c   6.65100000
_cell_angle_alpha   90.00000000
_cell_angle_beta   90.00000000
_cell_angle_gamma   90.00000000
_symmetry_Int_Tables_number   1
_chemical_formula_structural   BaAg
_chemical_formula_sum   'Ba4 Ag4'
_cell_volume   286.85213627
_cell_formula_units_Z   4
loop_
 _symmetry_equiv_pos_site_id
 _symmetry_equiv_pos_as_xyz
  1  'x, y, z'
loop_
 _atom_site_type_symbol
 _atom_site_label
 _atom_site_symmetry_multiplicity
 _atom_site_fract_x
 _atom_site_fract_y
 _atom_site_fract_z
 _atom_site_occupancy
  Ba  Ba0  1  0.32000000  0.75000000  0.12900000  1.0
  Ba  Ba1  1  0.82000000  0.75000000  0.37100000  1.0
  Ba  Ba2  1  0.68000000  0.25000000  0.87100000  1.0
  Ba  Ba3  1  0.18000000  0.25000000  0.62900000  1.0
  Ag  Ag4  1  0.46700000  0.75000000  0.63100000  1.0
  Ag  Ag5  1  0.96700000  0.75000000  0.86900000  1.0
  Ag  Ag6  1  0.53300000  0.25000000  0.36900000  1.0
  Ag  Ag7  1  0.03300000  0.25000000  0.13100000  1.0
