# generated using pymatgen
data_CNO
_symmetry_space_group_name_H-M   'P 1'
_cell_length_a   8.12600000
_cell_length_b   14.75700000
_cell_length_c   11.60005450
_cell_angle_alpha   90.00000000
_cell_angle_beta   110.53355276
_cell_angle_gamma   90.00000000
_symmetry_Int_Tables_number   1
_chemical_formula_structural   CNO
_chemical_formula_sum   'C4 N4 O4'
_cell_volume   1302.64890129
_cell_formula_units_Z   4
loop_
 _symmetry_equiv_pos_site_id
 _symmetry_equiv_pos_as_xyz
  1  'x, y, z'
loop_
 _atom_site_type_symbol
 _atom_site_label
 _atom_site_symmetry_multiplicity
 _atom_site_fract_x
 _atom_site_fract_y
 _atom_site_fract_z
 _atom_site_occupancy
  C  C0  1  0.27830000  0.56388000  0.95870000  1.0
  C  C1  1  0.72170000  0.06388000  0.54130000  1.0
  C  C2  1  0.72170000  0.43612000  0.04130000  1.0
  C  C3  1  0.27830000  0.93612000  0.45870000  1.0
  N  N4  1  0.10617000  0.60243000  0.86437000  1.0
  N  N5  1  0.89383000  0.10243000  0.63563000  1.0
  N  N6  1  0.89383000  0.39757000  0.13563000  1.0
  N  N7  1  0.10617000  0.89757000  0.36437000  1.0
  O  O8  1  0.77874000  0.35369000  0.72924000  1.0
  O  O9  1  0.22126000  0.85369000  0.77076000  1.0
  O  O10  1  0.22126000  0.64631000  0.27076000  1.0
  O  O11  1  0.77874000  0.14631000  0.22924000  1.0
