# generated using pymatgen
data_Ba(Si3N4)2
_symmetry_space_group_name_H-M   'P 1'
_cell_length_a   6.58784871
_cell_length_b   6.58784871
_cell_length_c   6.58784871
_cell_angle_alpha   105.97530645
_cell_angle_beta   89.66650023
_cell_angle_gamma   136.93651590
_symmetry_Int_Tables_number   1
_chemical_formula_structural   Ba(Si3N4)2
_chemical_formula_sum   'Ba1 Si6 N8'
_cell_volume   179.18805047
_cell_formula_units_Z   1
loop_
 _symmetry_equiv_pos_site_id
 _symmetry_equiv_pos_as_xyz
  1  'x, y, z'
loop_
 _atom_site_type_symbol
 _atom_site_label
 _atom_site_symmetry_multiplicity
 _atom_site_fract_x
 _atom_site_fract_y
 _atom_site_fract_z
 _atom_site_occupancy
  Ba  Ba0  1  0.00000000  0.00000000  0.00000000  1.0
  Si  Si1  1  1.31760000  1.18030000  1.54190000  1.0
  Si  Si2  1  0.63840000  1.18030000  0.86270000  1.0
  Si  Si3  1  1.31760000  0.77570000  1.13730000  1.0
  Si  Si4  1  0.63840000  0.77570000  0.45810000  1.0
  Si  Si5  1  1.08670000  1.46000000  0.62670000  1.0
  Si  Si6  1  1.83330000  1.46000000  1.37330000  1.0
  N  N7  1  0.92080000  0.79950000  1.48030000  1.0
  N  N8  1  0.31920000  0.79950000  0.87870000  1.0
  N  N9  1  0.92080000  0.44050000  1.12130000  1.0
  N  N10  1  0.31920000  0.44050000  0.51970000  1.0
  N  N11  1  0.81000000  1.12400000  0.68600000  1.0
  N  N12  1  1.43800000  1.12400000  1.31400000  1.0
  N  N13  1  0.46800000  1.25430000  0.78630000  1.0
  N  N14  1  0.46800000  0.68170000  0.21370000  1.0
