# generated using pymatgen
data_BaBrO
_symmetry_space_group_name_H-M   'P 1'
_cell_length_a   7.59800000
_cell_length_b   4.38760000
_cell_length_c   10.30800000
_cell_angle_alpha   90.00000000
_cell_angle_beta   90.00000000
_cell_angle_gamma   90.00000000
_symmetry_Int_Tables_number   1
_chemical_formula_structural   BaBrO
_chemical_formula_sum   'Ba4 Br4 O4'
_cell_volume   343.63763932
_cell_formula_units_Z   4
loop_
 _symmetry_equiv_pos_site_id
 _symmetry_equiv_pos_as_xyz
  1  'x, y, z'
loop_
 _atom_site_type_symbol
 _atom_site_label
 _atom_site_symmetry_multiplicity
 _atom_site_fract_x
 _atom_site_fract_y
 _atom_site_fract_z
 _atom_site_occupancy
  Ba  Ba0  1  0.70260000  0.75000000  0.41230000  1.0
  Ba  Ba1  1  0.20260000  0.75000000  0.08770000  1.0
  Ba  Ba2  1  0.29740000  0.25000000  0.58770000  1.0
  Ba  Ba3  1  0.79740000  0.25000000  0.91230000  1.0
  Br  Br4  1  0.94360000  0.75000000  0.67980000  1.0
  Br  Br5  1  0.44360000  0.75000000  0.82020000  1.0
  Br  Br6  1  0.05640000  0.25000000  0.32020000  1.0
  Br  Br7  1  0.55640000  0.25000000  0.17980000  1.0
  O  O8  1  0.87800000  0.75000000  0.04220000  1.0
  O  O9  1  0.37800000  0.75000000  0.45780000  1.0
  O  O10  1  0.12200000  0.25000000  0.95780000  1.0
  O  O11  1  0.62200000  0.25000000  0.54220000  1.0
