# generated using pymatgen
data_Ba2NCl
_symmetry_space_group_name_H-M   'P 1'
_cell_length_a   7.89939335
_cell_length_b   7.89939335
_cell_length_c   7.89939335
_cell_angle_alpha   30.09968011
_cell_angle_beta   30.09968011
_cell_angle_gamma   30.09968011
_symmetry_Int_Tables_number   1
_chemical_formula_structural   Ba2NCl
_chemical_formula_sum   'Ba2 N1 Cl1'
_cell_volume   109.83087272
_cell_formula_units_Z   1
loop_
 _symmetry_equiv_pos_site_id
 _symmetry_equiv_pos_as_xyz
  1  'x, y, z'
loop_
 _atom_site_type_symbol
 _atom_site_label
 _atom_site_symmetry_multiplicity
 _atom_site_fract_x
 _atom_site_fract_y
 _atom_site_fract_z
 _atom_site_occupancy
  Ba  Ba0  1  0.76820000  0.76820000  0.76820000  1.0
  Ba  Ba1  1  1.23180000  1.23180000  0.23180000  1.0
  N  N2  1  1.50000000  0.50000000  0.50000000  1.0
  Cl  Cl3  1  0.00000000  0.00000000  0.00000000  1.0
