# generated using pymatgen
data_TeMo6
_symmetry_space_group_name_H-M   'P 1'
_cell_length_a   10.44093506
_cell_length_b   10.44093506
_cell_length_c   14.26000000
_cell_angle_alpha   90.00000000
_cell_angle_beta   90.00000000
_cell_angle_gamma   88.87468731
_symmetry_Int_Tables_number   1
_chemical_formula_structural   TeMo6
_chemical_formula_sum   'Te2 Mo12'
_cell_volume   1554.22734600
_cell_formula_units_Z   2
loop_
 _symmetry_equiv_pos_site_id
 _symmetry_equiv_pos_as_xyz
  1  'x, y, z'
loop_
 _atom_site_type_symbol
 _atom_site_label
 _atom_site_symmetry_multiplicity
 _atom_site_fract_x
 _atom_site_fract_y
 _atom_site_fract_z
 _atom_site_occupancy
  Te  Te0  1  0.00000000  0.00000000  0.00000000  1.0
  Te  Te1  1  -0.50000000  0.50000000  0.50000000  1.0
  Mo  Mo2  1  0.22800000  1.22800000  0.00000000  1.0
  Mo  Mo3  1  0.27200000  1.27200000  0.50000000  1.0
  Mo  Mo4  1  -0.22800000  0.77200000  0.00000000  1.0
  Mo  Mo5  1  -0.27200000  0.72800000  0.50000000  1.0
  Mo  Mo6  1  0.23400000  1.00800000  0.16800000  1.0
  Mo  Mo7  1  0.49200000  1.26600000  0.33200000  1.0
  Mo  Mo8  1  0.26600000  1.49200000  0.66800000  1.0
  Mo  Mo9  1  0.00800000  1.23400000  0.83200000  1.0
  Mo  Mo10  1  -0.23400000  0.99200000  0.83200000  1.0
  Mo  Mo11  1  -0.49200000  0.73400000  0.66800000  1.0
  Mo  Mo12  1  -0.26600000  0.50800000  0.33200000  1.0
  Mo  Mo13  1  -0.00800000  0.76600000  0.16800000  1.0
