# generated using pymatgen
data_MoCl3
_symmetry_space_group_name_H-M   'P 1'
_cell_length_a   5.74624854
_cell_length_b   5.74624854
_cell_length_c   6.30120000
_cell_angle_alpha   80.50472402
_cell_angle_beta   99.49527598
_cell_angle_gamma   64.02239257
_symmetry_Int_Tables_number   1
_chemical_formula_structural   MoCl3
_chemical_formula_sum   'Mo2 Cl6'
_cell_volume   177.75219053
_cell_formula_units_Z   2
loop_
 _symmetry_equiv_pos_site_id
 _symmetry_equiv_pos_as_xyz
  1  'x, y, z'
loop_
 _atom_site_type_symbol
 _atom_site_label
 _atom_site_symmetry_multiplicity
 _atom_site_fract_x
 _atom_site_fract_y
 _atom_site_fract_z
 _atom_site_occupancy
  Mo  Mo0  1  0.85830000  -0.14170000  0.00000000  1.0
  Mo  Mo1  1  1.14170000  0.14170000  0.00000000  1.0
  Cl  Cl2  1  0.44900000  -0.10900000  0.77700000  1.0
  Cl  Cl3  1  1.10900000  0.55100000  0.77700000  1.0
  Cl  Cl4  1  0.89100000  -0.55100000  0.22300000  1.0
  Cl  Cl5  1  1.55100000  0.10900000  0.22300000  1.0
  Cl  Cl6  1  0.73400000  -0.73400000  0.72600000  1.0
  Cl  Cl7  1  0.26600000  -0.26600000  0.27400000  1.0
