# generated using pymatgen
data_FeSeO5
_symmetry_space_group_name_H-M   'P 1'
_cell_length_a   5.37856640
_cell_length_b   5.37856640
_cell_length_c   7.72400000
_cell_angle_alpha   72.78833103
_cell_angle_beta   107.21166897
_cell_angle_gamma   83.18657540
_symmetry_Int_Tables_number   1
_chemical_formula_structural   FeSeO5
_chemical_formula_sum   'Fe2 Se2 O10'
_cell_volume   198.60860512
_cell_formula_units_Z   2
loop_
 _symmetry_equiv_pos_site_id
 _symmetry_equiv_pos_as_xyz
  1  'x, y, z'
loop_
 _atom_site_type_symbol
 _atom_site_label
 _atom_site_symmetry_multiplicity
 _atom_site_fract_x
 _atom_site_fract_y
 _atom_site_fract_z
 _atom_site_occupancy
  Fe  Fe0  1  1.50000000  -0.00000000  0.50000000  1.0
  Fe  Fe1  1  1.00000000  -0.50000000  0.00000000  1.0
  Se  Se2  1  0.91010000  -0.08990000  0.25000000  1.0
  Se  Se3  1  1.08990000  0.08990000  0.75000000  1.0
  O  O4  1  0.77730000  -0.18910000  0.41550000  1.0
  O  O5  1  1.18910000  0.22270000  0.91550000  1.0
  O  O6  1  0.81090000  -0.22270000  0.08450000  1.0
  O  O7  1  1.22270000  0.18910000  0.58450000  1.0
  O  O8  1  0.23670000  -0.18290000  0.34750000  1.0
  O  O9  1  1.18290000  0.76330000  0.84750000  1.0
  O  O10  1  0.81710000  -0.76330000  0.15250000  1.0
  O  O11  1  1.76330000  0.18290000  0.65250000  1.0
  O  O12  1  1.38540000  0.38540000  0.25000000  1.0
  O  O13  1  0.61460000  -0.38540000  0.75000000  1.0
