# generated using pymatgen
data_Pt(NF3)2
_symmetry_space_group_name_H-M   'P 1'
_cell_length_a   5.97600000
_cell_length_b   5.97600000
_cell_length_c   14.65000000
_cell_angle_alpha   90.00000000
_cell_angle_beta   90.00000000
_cell_angle_gamma   120.00000000
_symmetry_Int_Tables_number   1
_chemical_formula_structural   Pt(NF3)2
_chemical_formula_sum   'Pt1 N2 F6'
_cell_volume   453.09517144
_cell_formula_units_Z   1
loop_
 _symmetry_equiv_pos_site_id
 _symmetry_equiv_pos_as_xyz
  1  'x, y, z'
loop_
 _atom_site_type_symbol
 _atom_site_label
 _atom_site_symmetry_multiplicity
 _atom_site_fract_x
 _atom_site_fract_y
 _atom_site_fract_z
 _atom_site_occupancy
  Pt  Pt0  1  0.00000000  0.00000000  0.00000000  1.0
  N  N1  1  0.00000000  0.00000000  0.24880000  1.0
  N  N2  1  0.00000000  0.00000000  0.75120000  1.0
  F  F3  1  0.15280000  0.84720000  0.07630000  1.0
  F  F4  1  0.84720000  0.69440000  0.92370000  1.0
  F  F5  1  0.69440000  0.84720000  0.07630000  1.0
  F  F6  1  0.15280000  0.30560000  0.07630000  1.0
  F  F7  1  0.84720000  0.15280000  0.92370000  1.0
  F  F8  1  0.30560000  0.15280000  0.92370000  1.0
