# generated using pymatgen
data_KCo
_symmetry_space_group_name_H-M   'P 1'
_cell_length_a   12.76000000
_cell_length_b   6.72000000
_cell_length_c   11.27000000
_cell_angle_alpha   90.00000000
_cell_angle_beta   90.00000000
_cell_angle_gamma   90.00000000
_symmetry_Int_Tables_number   1
_chemical_formula_structural   KCo
_chemical_formula_sum   'K4 Co4'
_cell_volume   966.37094400
_cell_formula_units_Z   4
loop_
 _symmetry_equiv_pos_site_id
 _symmetry_equiv_pos_as_xyz
  1  'x, y, z'
loop_
 _atom_site_type_symbol
 _atom_site_label
 _atom_site_symmetry_multiplicity
 _atom_site_fract_x
 _atom_site_fract_y
 _atom_site_fract_z
 _atom_site_occupancy
  K  K0  1  0.52100000  0.25000000  0.14600000  1.0
  K  K1  1  0.47900000  0.75000000  0.85400000  1.0
  K  K2  1  0.97900000  0.75000000  0.64600000  1.0
  K  K3  1  0.02100000  0.25000000  0.35400000  1.0
  Co  Co4  1  0.68700000  0.25000000  0.58900000  1.0
  Co  Co5  1  0.31300000  0.75000000  0.41100000  1.0
  Co  Co6  1  0.81300000  0.75000000  0.08900000  1.0
  Co  Co7  1  0.18700000  0.25000000  0.91100000  1.0
