# generated using pymatgen
data_Na5LiN2
_symmetry_space_group_name_H-M   'P 1'
_cell_length_a   4.48991918
_cell_length_b   4.48991918
_cell_length_c   6.38300000
_cell_angle_alpha   89.11553709
_cell_angle_beta   90.88446291
_cell_angle_gamma   97.10595114
_symmetry_Int_Tables_number   1
_chemical_formula_structural   Na5LiN2
_chemical_formula_sum   'Na5 Li1 N2'
_cell_volume   127.66184913
_cell_formula_units_Z   1
loop_
 _symmetry_equiv_pos_site_id
 _symmetry_equiv_pos_as_xyz
  1  'x, y, z'
loop_
 _atom_site_type_symbol
 _atom_site_label
 _atom_site_symmetry_multiplicity
 _atom_site_fract_x
 _atom_site_fract_y
 _atom_site_fract_z
 _atom_site_occupancy
  Na  Na0  1  0.43700000  -0.13300000  0.23200000  1.0
  Na  Na1  1  0.86700000  -0.56300000  0.76800000  1.0
  Na  Na2  1  0.91600000  -0.08400000  0.50000000  1.0
  Na  Na3  1  1.38300000  0.38300000  0.50000000  1.0
  Na  Na4  1  1.36900000  0.36900000  0.00000000  1.0
  Li  Li5  1  0.90700000  -0.09300000  0.00000000  1.0
  N  N6  1  0.42000000  -0.12000000  0.76300000  1.0
  N  N7  1  0.88000000  -0.58000000  0.23700000  1.0
