# generated using pymatgen
data_Ba2Si
_symmetry_space_group_name_H-M   'P 1'
_cell_length_a   8.43000000
_cell_length_b   5.40000000
_cell_length_c   9.88000000
_cell_angle_alpha   90.00000000
_cell_angle_beta   90.00000000
_cell_angle_gamma   90.00000000
_symmetry_Int_Tables_number   1
_chemical_formula_structural   Ba2Si
_chemical_formula_sum   'Ba8 Si4'
_cell_volume   449.75736000
_cell_formula_units_Z   4
loop_
 _symmetry_equiv_pos_site_id
 _symmetry_equiv_pos_as_xyz
  1  'x, y, z'
loop_
 _atom_site_type_symbol
 _atom_site_label
 _atom_site_symmetry_multiplicity
 _atom_site_fract_x
 _atom_site_fract_y
 _atom_site_fract_z
 _atom_site_occupancy
  Ba  Ba0  1  0.84870000  0.75000000  0.08300000  1.0
  Ba  Ba1  1  0.34870000  0.75000000  0.41700000  1.0
  Ba  Ba2  1  0.15130000  0.25000000  0.91700000  1.0
  Ba  Ba3  1  0.65130000  0.25000000  0.58300000  1.0
  Ba  Ba4  1  0.98150000  0.75000000  0.67560000  1.0
  Ba  Ba5  1  0.48150000  0.75000000  0.82440000  1.0
  Ba  Ba6  1  0.01850000  0.25000000  0.32440000  1.0
  Ba  Ba7  1  0.51850000  0.25000000  0.17560000  1.0
  Si  Si8  1  0.74900000  0.75000000  0.40160000  1.0
  Si  Si9  1  0.24900000  0.75000000  0.09840000  1.0
  Si  Si10  1  0.25100000  0.25000000  0.59840000  1.0
  Si  Si11  1  0.75100000  0.25000000  0.90160000  1.0
