# generated using pymatgen
data_BaN2
_symmetry_space_group_name_H-M   'P 1'
_cell_length_a   7.75643766
_cell_length_b   7.75643766
_cell_length_c   7.03700000
_cell_angle_alpha   71.42956789
_cell_angle_beta   108.57043211
_cell_angle_gamma   70.48026969
_symmetry_Int_Tables_number   1
_chemical_formula_structural   BaN2
_chemical_formula_sum   'Ba4 N8'
_cell_volume   332.74559687
_cell_formula_units_Z   4
loop_
 _symmetry_equiv_pos_site_id
 _symmetry_equiv_pos_as_xyz
  1  'x, y, z'
loop_
 _atom_site_type_symbol
 _atom_site_label
 _atom_site_symmetry_multiplicity
 _atom_site_fract_x
 _atom_site_fract_y
 _atom_site_fract_z
 _atom_site_occupancy
  Ba  Ba0  1  1.15580000  0.62860000  0.89660000  1.0
  Ba  Ba1  1  1.37140000  -0.15580000  0.39660000  1.0
  Ba  Ba2  1  1.20770000  0.16570000  0.74500000  1.0
  Ba  Ba3  1  0.83430000  0.79230000  0.24500000  1.0
  N  N4  1  0.99430000  0.99430000  0.50000000  1.0
  N  N5  1  1.00570000  0.00570000  -0.00000000  1.0
  N  N6  1  0.84010000  0.55210000  0.64200000  1.0
  N  N7  1  1.44790000  0.15990000  0.14200000  1.0
  N  N8  1  1.56580000  -0.04220000  0.73200000  1.0
  N  N9  1  1.04220000  0.43420000  0.23200000  1.0
  N  N10  1  1.32200000  0.50800000  0.62100000  1.0
  N  N11  1  1.49200000  -0.32200000  0.12100000  1.0
