# generated using pymatgen
data_KFe2S3
_symmetry_space_group_name_H-M   'P 1'
_cell_length_a   7.13100993
_cell_length_b   7.13100993
_cell_length_c   5.41770000
_cell_angle_alpha   90.00000000
_cell_angle_beta   90.00000000
_cell_angle_gamma   101.31473612
_symmetry_Int_Tables_number   1
_chemical_formula_structural   KFe2S3
_chemical_formula_sum   'K2 Fe4 S6'
_cell_volume   270.14260363
_cell_formula_units_Z   2
loop_
 _symmetry_equiv_pos_site_id
 _symmetry_equiv_pos_as_xyz
  1  'x, y, z'
loop_
 _atom_site_type_symbol
 _atom_site_label
 _atom_site_symmetry_multiplicity
 _atom_site_fract_x
 _atom_site_fract_y
 _atom_site_fract_z
 _atom_site_occupancy
  K  K0  1  -0.32560000  1.32560000  0.25000000  1.0
  K  K1  1  0.32560000  0.67440000  0.75000000  1.0
  Fe  Fe2  1  0.84880000  0.84880000  0.50000000  1.0
  Fe  Fe3  1  0.84880000  0.84880000  0.00000000  1.0
  Fe  Fe4  1  0.15120000  0.15120000  0.50000000  1.0
  Fe  Fe5  1  0.15120000  0.15120000  0.00000000  1.0
  S  S6  1  0.16970000  0.39930000  0.25000000  1.0
  S  S7  1  -0.60070000  1.16970000  0.75000000  1.0
  S  S8  1  0.60070000  0.83030000  0.25000000  1.0
  S  S9  1  -0.16970000  1.60070000  0.75000000  1.0
  S  S10  1  0.11590000  0.88410000  0.25000000  1.0
  S  S11  1  -0.11590000  1.11590000  0.75000000  1.0
