# generated using pymatgen
data_CBrN3O
_symmetry_space_group_name_H-M   'P 1'
_cell_length_a   7.10000000
_cell_length_b   4.79000000
_cell_length_c   9.03000000
_cell_angle_alpha   90.00000000
_cell_angle_beta   101.30000000
_cell_angle_gamma   90.00000000
_symmetry_Int_Tables_number   1
_chemical_formula_structural   CBrN3O
_chemical_formula_sum   'C2 Br2 N6 O2'
_cell_volume   301.14800702
_cell_formula_units_Z   2
loop_
 _symmetry_equiv_pos_site_id
 _symmetry_equiv_pos_as_xyz
  1  'x, y, z'
loop_
 _atom_site_type_symbol
 _atom_site_label
 _atom_site_symmetry_multiplicity
 _atom_site_fract_x
 _atom_site_fract_y
 _atom_site_fract_z
 _atom_site_occupancy
  C  C0  1  0.70300000  0.14800000  0.82600000  1.0
  C  C1  1  0.29700000  0.64800000  0.17400000  1.0
  Br  Br2  1  0.82010000  0.14800000  0.27540000  1.0
  Br  Br3  1  0.17990000  0.64800000  0.72460000  1.0
  N  N4  1  0.85900000  0.00000000  0.90200000  1.0
  N  N5  1  0.14100000  0.50000000  0.09800000  1.0
  N  N6  1  0.69300000  0.64800000  0.51000000  1.0
  N  N7  1  0.30700000  0.14800000  0.49000000  1.0
  N  N8  1  0.59400000  0.29700000  0.90000000  1.0
  N  N9  1  0.40600000  0.79700000  0.10000000  1.0
  O  O10  1  0.65900000  0.14800000  0.68600000  1.0
  O  O11  1  0.34100000  0.64800000  0.31400000  1.0
