# generated using pymatgen
data_Ba2In
_symmetry_space_group_name_H-M   'P 1'
_cell_length_a   8.09730000
_cell_length_b   5.91340000
_cell_length_c   10.93900000
_cell_angle_alpha   90.00000000
_cell_angle_beta   90.00000000
_cell_angle_gamma   90.00000000
_symmetry_Int_Tables_number   1
_chemical_formula_structural   Ba2In
_chemical_formula_sum   'Ba8 In4'
_cell_volume   523.78747502
_cell_formula_units_Z   4
loop_
 _symmetry_equiv_pos_site_id
 _symmetry_equiv_pos_as_xyz
  1  'x, y, z'
loop_
 _atom_site_type_symbol
 _atom_site_label
 _atom_site_symmetry_multiplicity
 _atom_site_fract_x
 _atom_site_fract_y
 _atom_site_fract_z
 _atom_site_occupancy
  Ba  Ba0  1  0.97740000  0.75000000  0.69440000  1.0
  Ba  Ba1  1  0.47740000  0.75000000  0.80560000  1.0
  Ba  Ba2  1  0.02260000  0.25000000  0.30560000  1.0
  Ba  Ba3  1  0.52260000  0.25000000  0.19440000  1.0
  Ba  Ba4  1  0.82250000  0.75000000  0.07390000  1.0
  Ba  Ba5  1  0.32250000  0.75000000  0.42610000  1.0
  Ba  Ba6  1  0.17750000  0.25000000  0.92610000  1.0
  Ba  Ba7  1  0.67750000  0.25000000  0.57390000  1.0
  In  In8  1  0.76870000  0.75000000  0.39510000  1.0
  In  In9  1  0.26870000  0.75000000  0.10490000  1.0
  In  In10  1  0.23130000  0.25000000  0.60490000  1.0
  In  In11  1  0.73130000  0.25000000  0.89510000  1.0
