# generated using pymatgen
data_SnNF3
_symmetry_space_group_name_H-M   'P 1'
_cell_length_a   6.67631430
_cell_length_b   6.67631430
_cell_length_c   6.50700000
_cell_angle_alpha   61.72030660
_cell_angle_beta   118.27969340
_cell_angle_gamma   118.18125237
_symmetry_Int_Tables_number   1
_chemical_formula_structural   SnNF3
_chemical_formula_sum   'Sn2 N2 F6'
_cell_volume   213.14357444
_cell_formula_units_Z   2
loop_
 _symmetry_equiv_pos_site_id
 _symmetry_equiv_pos_as_xyz
  1  'x, y, z'
loop_
 _atom_site_type_symbol
 _atom_site_label
 _atom_site_symmetry_multiplicity
 _atom_site_fract_x
 _atom_site_fract_y
 _atom_site_fract_z
 _atom_site_occupancy
  Sn  Sn0  1  0.99930000  -0.72530000  0.63820000  1.0
  Sn  Sn1  1  0.27470000  -0.00070000  0.36180000  1.0
  N  N2  1  0.73200000  -0.51200000  0.89000000  1.0
  N  N3  1  0.48800000  -0.26800000  0.11000000  1.0
  F  F4  1  0.88600000  -0.88600000  0.93900000  1.0
  F  F5  1  0.11400000  -0.11400000  0.06100000  1.0
  F  F6  1  1.17800000  0.60200000  0.74500000  1.0
  F  F7  1  1.60200000  0.17800000  0.25500000  1.0
  F  F8  1  0.70300000  -0.60100000  0.45400000  1.0
  F  F9  1  0.39900000  -0.29700000  0.54600000  1.0
