# generated using pymatgen
data_Cu
_symmetry_space_group_name_H-M   'P 1'
_cell_length_a   8.70201126
_cell_length_b   8.70201126
_cell_length_c   7.70000000
_cell_angle_alpha   88.08093433
_cell_angle_beta   91.91906567
_cell_angle_gamma   147.29523291
_symmetry_Int_Tables_number   1
_chemical_formula_structural   Cu
_chemical_formula_sum   Cu2
_cell_volume   314.85358279
_cell_formula_units_Z   2
loop_
 _symmetry_equiv_pos_site_id
 _symmetry_equiv_pos_as_xyz
  1  'x, y, z'
loop_
 _atom_site_type_symbol
 _atom_site_label
 _atom_site_symmetry_multiplicity
 _atom_site_fract_x
 _atom_site_fract_y
 _atom_site_fract_z
 _atom_site_occupancy
  Cu  Cu0  1  0.88000000  0.12000000  0.78000000  1.0
  Cu  Cu1  1  0.12000000  -0.12000000  0.22000000  1.0
