# generated using pymatgen
data_Ba2CdAs2
_symmetry_space_group_name_H-M   'P 1'
_cell_length_a   9.00016504
_cell_length_b   9.00016504
_cell_length_c   8.05260000
_cell_angle_alpha   90.00000000
_cell_angle_beta   90.00000000
_cell_angle_gamma   150.43889942
_symmetry_Int_Tables_number   1
_chemical_formula_structural   Ba2CdAs2
_chemical_formula_sum   'Ba4 Cd2 As4'
_cell_volume   321.80550357
_cell_formula_units_Z   2
loop_
 _symmetry_equiv_pos_site_id
 _symmetry_equiv_pos_as_xyz
  1  'x, y, z'
loop_
 _atom_site_type_symbol
 _atom_site_label
 _atom_site_symmetry_multiplicity
 _atom_site_fract_x
 _atom_site_fract_y
 _atom_site_fract_z
 _atom_site_occupancy
  Ba  Ba0  1  -0.70430000  0.70430000  0.96480000  1.0
  Ba  Ba1  1  -0.29570000  1.29570000  0.46480000  1.0
  Ba  Ba2  1  -0.53800000  0.53800000  0.29960000  1.0
  Ba  Ba3  1  -0.46200000  1.46200000  0.79960000  1.0
  Cd  Cd4  1  -0.90580000  0.90580000  0.15050000  1.0
  Cd  Cd5  1  -0.09420000  1.09420000  0.65050000  1.0
  As  As6  1  -0.93980000  0.93980000  0.50000000  1.0
  As  As7  1  -0.06020000  1.06020000  0.00000000  1.0
  As  As8  1  -0.67100000  0.67100000  0.57010000  1.0
  As  As9  1  -0.32900000  1.32900000  0.07010000  1.0
