# generated using pymatgen
data_BaNb3O6
_symmetry_space_group_name_H-M   'P 1'
_cell_length_a   6.70302894
_cell_length_b   6.70302894
_cell_length_c   6.70302894
_cell_angle_alpha   117.04511082
_cell_angle_beta   117.04511082
_cell_angle_gamma   117.04511082
_symmetry_Int_Tables_number   1
_chemical_formula_structural   BaNb3O6
_chemical_formula_sum   'Ba1 Nb3 O6'
_cell_volume   131.88254794
_cell_formula_units_Z   1
loop_
 _symmetry_equiv_pos_site_id
 _symmetry_equiv_pos_as_xyz
  1  'x, y, z'
loop_
 _atom_site_type_symbol
 _atom_site_label
 _atom_site_symmetry_multiplicity
 _atom_site_fract_x
 _atom_site_fract_y
 _atom_site_fract_z
 _atom_site_occupancy
  Ba  Ba0  1  -0.00000000  -0.00000000  -0.00000000  1.0
  Nb  Nb1  1  0.49910000  0.49910000  0.00940000  1.0
  Nb  Nb2  1  0.49910000  1.00940000  -0.50090000  1.0
  Nb  Nb3  1  1.00940000  0.49910000  0.49910000  1.0
  O  O4  1  0.97550000  1.23640000  -0.24850000  1.0
  O  O5  1  1.23640000  0.97550000  0.75150000  1.0
  O  O6  1  0.97550000  0.75150000  0.23640000  1.0
  O  O7  1  0.75150000  -0.02450000  0.23640000  1.0
  O  O8  1  0.75150000  0.23640000  -0.02450000  1.0
  O  O9  1  1.23640000  0.75150000  0.97550000  1.0
