# generated using pymatgen
data_BaBrCl
_symmetry_space_group_name_H-M   'P 1'
_cell_length_a   8.07000000
_cell_length_b   4.84000000
_cell_length_c   9.67000000
_cell_angle_alpha   90.00000000
_cell_angle_beta   90.00000000
_cell_angle_gamma   90.00000000
_symmetry_Int_Tables_number   1
_chemical_formula_structural   BaBrCl
_chemical_formula_sum   'Ba4 Br4 Cl4'
_cell_volume   377.69859600
_cell_formula_units_Z   4
loop_
 _symmetry_equiv_pos_site_id
 _symmetry_equiv_pos_as_xyz
  1  'x, y, z'
loop_
 _atom_site_type_symbol
 _atom_site_label
 _atom_site_symmetry_multiplicity
 _atom_site_fract_x
 _atom_site_fract_y
 _atom_site_fract_z
 _atom_site_occupancy
  Ba  Ba0  1  0.86030000  0.75000000  0.13230000  1.0
  Ba  Ba1  1  0.36030000  0.75000000  0.36770000  1.0
  Ba  Ba2  1  0.13970000  0.25000000  0.86770000  1.0
  Ba  Ba3  1  0.63970000  0.25000000  0.63230000  1.0
  Br  Br4  1  0.98060000  0.75000000  0.69270000  1.0
  Br  Br5  1  0.48060000  0.75000000  0.80730000  1.0
  Br  Br6  1  0.01940000  0.25000000  0.30730000  1.0
  Br  Br7  1  0.51940000  0.25000000  0.19270000  1.0
  Cl  Cl8  1  0.67860000  0.75000000  0.45140000  1.0
  Cl  Cl9  1  0.17860000  0.75000000  0.04860000  1.0
  Cl  Cl10  1  0.32140000  0.25000000  0.54860000  1.0
  Cl  Cl11  1  0.82140000  0.25000000  0.95140000  1.0
