# generated using pymatgen
data_Nb
_symmetry_space_group_name_H-M   'P 1'
_cell_length_a   14.12820000
_cell_length_b   9.93690000
_cell_length_c   6.45530000
_cell_angle_alpha   106.44000000
_cell_angle_beta   95.85600000
_cell_angle_gamma   97.30000000
_symmetry_Int_Tables_number   1
_chemical_formula_structural   Nb
_chemical_formula_sum   Nb14
_cell_volume   853.04873134
_cell_formula_units_Z   14
loop_
 _symmetry_equiv_pos_site_id
 _symmetry_equiv_pos_as_xyz
  1  'x, y, z'
loop_
 _atom_site_type_symbol
 _atom_site_label
 _atom_site_symmetry_multiplicity
 _atom_site_fract_x
 _atom_site_fract_y
 _atom_site_fract_z
 _atom_site_occupancy
  Nb  Nb0  1  -0.51400000  -0.61200000  -0.42000000  1.0
  Nb  Nb1  1  -0.48600000  -0.38800000  -0.58000000  1.0
  Nb  Nb2  1  -0.36500000  -0.23400000  -0.14000000  1.0
  Nb  Nb3  1  -0.63500000  -0.76600000  -0.86000000  1.0
  Nb  Nb4  1  -0.26500000  -0.27600000  -0.57900000  1.0
  Nb  Nb5  1  -0.73500000  -0.72400000  -0.42100000  1.0
  Nb  Nb6  1  -0.21000000  -0.84000000  -0.99700000  1.0
  Nb  Nb7  1  -0.79000000  -0.16000000  -0.00300000  1.0
  Nb  Nb8  1  -0.89100000  -0.10800000  -0.53400000  1.0
  Nb  Nb9  1  -0.10900000  -0.89200000  -0.46600000  1.0
  Nb  Nb10  1  -0.42800000  -0.67000000  -0.87600000  1.0
  Nb  Nb11  1  -0.57200000  -0.33000000  -0.12400000  1.0
  Nb  Nb12  1  -0.04300000  -0.47800000  -0.72000000  1.0
  Nb  Nb13  1  -0.95700000  -0.52200000  -0.28000000  1.0
