# generated using pymatgen
data_TiO2
_symmetry_space_group_name_H-M   'P 1'
_cell_length_a   8.73184545
_cell_length_b   8.73184545
_cell_length_c   12.93200000
_cell_angle_alpha   90.00000000
_cell_angle_beta   90.00000000
_cell_angle_gamma   126.86989765
_symmetry_Int_Tables_number   1
_chemical_formula_structural   TiO2
_chemical_formula_sum   'Ti4 O8'
_cell_volume   788.80156520
_cell_formula_units_Z   4
loop_
 _symmetry_equiv_pos_site_id
 _symmetry_equiv_pos_as_xyz
  1  'x, y, z'
loop_
 _atom_site_type_symbol
 _atom_site_label
 _atom_site_symmetry_multiplicity
 _atom_site_fract_x
 _atom_site_fract_y
 _atom_site_fract_z
 _atom_site_occupancy
  Ti  Ti0  1  -0.37610000  0.37610000  0.94090000  1.0
  Ti  Ti1  1  0.37610000  0.62390000  0.94090000  1.0
  Ti  Ti2  1  0.25390000  0.25390000  0.94400000  1.0
  Ti  Ti3  1  0.74610000  0.74610000  0.94400000  1.0
  O  O4  1  0.00000000  0.00000000  0.92330000  1.0
  O  O5  1  0.50000000  0.50000000  0.91620000  1.0
  O  O6  1  -0.24550000  0.24550000  0.91460000  1.0
  O  O7  1  0.24550000  0.75450000  0.91460000  1.0
  O  O8  1  0.41520000  1.16940000  -0.00000000  1.0
  O  O9  1  0.58480000  0.83060000  -0.00000000  1.0
  O  O10  1  0.16940000  0.41520000  -0.00000000  1.0
  O  O11  1  -0.16940000  0.58480000  -0.00000000  1.0
