# generated using pymatgen
data_W
_symmetry_space_group_name_H-M   'P 1'
_cell_length_a   12.44000000
_cell_length_b   12.19109844
_cell_length_c   11.77000000
_cell_angle_alpha   114.78690375
_cell_angle_beta   113.33000000
_cell_angle_gamma   82.66394163
_symmetry_Int_Tables_number   1
_chemical_formula_structural   W
_chemical_formula_sum   W12
_cell_volume   1486.48620741
_cell_formula_units_Z   12
loop_
 _symmetry_equiv_pos_site_id
 _symmetry_equiv_pos_as_xyz
  1  'x, y, z'
loop_
 _atom_site_type_symbol
 _atom_site_label
 _atom_site_symmetry_multiplicity
 _atom_site_fract_x
 _atom_site_fract_y
 _atom_site_fract_z
 _atom_site_occupancy
  W  W0  1  0.23000000  0.08000000  -0.94000000  1.0
  W  W1  1  0.77000000  0.92000000  -0.06000000  1.0
  W  W2  1  0.05000000  0.13000000  -0.19500000  1.0
  W  W3  1  0.95000000  0.87000000  -0.80500000  1.0
  W  W4  1  0.01000000  0.26000000  -0.90000000  1.0
  W  W5  1  0.99000000  0.74000000  -0.10000000  1.0
  W  W6  1  0.72000000  0.11000000  -0.25500000  1.0
  W  W7  1  0.28000000  0.89000000  -0.74500000  1.0
  W  W8  1  0.89000000  0.18000000  -0.71000000  1.0
  W  W9  1  0.11000000  0.82000000  -0.29000000  1.0
  W  W10  1  0.69000000  0.24000000  -0.96000000  1.0
  W  W11  1  0.31000000  0.76000000  -0.04000000  1.0
