# generated using pymatgen
data_Ba2FeBrO3
_symmetry_space_group_name_H-M   'P 1'
_cell_length_a   4.01100000
_cell_length_b   4.01100000
_cell_length_c   15.50000000
_cell_angle_alpha   90.00000000
_cell_angle_beta   90.00000000
_cell_angle_gamma   90.00000000
_symmetry_Int_Tables_number   1
_chemical_formula_structural   Ba2FeBrO3
_chemical_formula_sum   'Ba4 Fe2 Br2 O6'
_cell_volume   249.36587550
_cell_formula_units_Z   2
loop_
 _symmetry_equiv_pos_site_id
 _symmetry_equiv_pos_as_xyz
  1  'x, y, z'
loop_
 _atom_site_type_symbol
 _atom_site_label
 _atom_site_symmetry_multiplicity
 _atom_site_fract_x
 _atom_site_fract_y
 _atom_site_fract_z
 _atom_site_occupancy
  Ba  Ba0  1  0.50000000  0.50000000  0.08150000  1.0
  Ba  Ba1  1  0.50000000  0.50000000  0.32210000  1.0
  Ba  Ba2  1  0.00000000  0.00000000  0.50950000  1.0
  Ba  Ba3  1  0.00000000  0.00000000  0.76600000  1.0
  Fe  Fe4  1  0.50000000  0.50000000  0.63150000  1.0
  Fe  Fe5  1  0.00000000  0.00000000  0.21290000  1.0
  Br  Br6  1  0.50000000  0.50000000  0.85520000  1.0
  Br  Br7  1  0.00000000  0.00000000  0.00000000  1.0
  O  O8  1  0.00000000  0.50000000  0.19110000  1.0
  O  O9  1  0.50000000  0.00000000  0.19110000  1.0
  O  O10  1  0.00000000  0.50000000  0.65900000  1.0
  O  O11  1  0.50000000  0.00000000  0.65900000  1.0
  O  O12  1  0.50000000  0.50000000  0.50750000  1.0
  O  O13  1  0.00000000  0.00000000  0.35210000  1.0
