# generated using pymatgen
data_ClO2
_symmetry_space_group_name_H-M   'P 1'
_cell_length_a   3.99100000
_cell_length_b   12.05500000
_cell_length_c   6.69800000
_cell_angle_alpha   90.00000000
_cell_angle_beta   100.58000000
_cell_angle_gamma   90.00000000
_symmetry_Int_Tables_number   1
_chemical_formula_structural   ClO2
_chemical_formula_sum   'Cl4 O8'
_cell_volume   316.77243486
_cell_formula_units_Z   4
loop_
 _symmetry_equiv_pos_site_id
 _symmetry_equiv_pos_as_xyz
  1  'x, y, z'
loop_
 _atom_site_type_symbol
 _atom_site_label
 _atom_site_symmetry_multiplicity
 _atom_site_fract_x
 _atom_site_fract_y
 _atom_site_fract_z
 _atom_site_occupancy
  Cl  Cl0  1  0.98180000  0.17230000  0.35180000  1.0
  Cl  Cl1  1  0.98180000  0.32770000  0.85180000  1.0
  Cl  Cl2  1  0.01820000  0.67230000  0.14820000  1.0
  Cl  Cl3  1  0.01820000  0.82770000  0.64820000  1.0
  O  O4  1  0.70510000  0.44280000  0.20260000  1.0
  O  O5  1  0.70510000  0.05720000  0.70260000  1.0
  O  O6  1  0.29490000  0.94280000  0.29740000  1.0
  O  O7  1  0.29490000  0.55720000  0.79740000  1.0
  O  O8  1  0.44670000  0.37210000  0.47560000  1.0
  O  O9  1  0.44670000  0.12790000  0.97560000  1.0
  O  O10  1  0.55330000  0.87210000  0.02440000  1.0
  O  O11  1  0.55330000  0.62790000  0.52440000  1.0
