# generated using pymatgen
data_Ba3P4
_symmetry_space_group_name_H-M   'P 1'
_cell_length_a   9.62255418
_cell_length_b   8.03701905
_cell_length_c   11.75908050
_cell_angle_alpha   54.30838749
_cell_angle_beta   42.71449705
_cell_angle_gamma   82.97711546
_symmetry_Int_Tables_number   1
_chemical_formula_structural   Ba3P4
_chemical_formula_sum   'Ba6 P8'
_cell_volume   416.39011035
_cell_formula_units_Z   2
loop_
 _symmetry_equiv_pos_site_id
 _symmetry_equiv_pos_as_xyz
  1  'x, y, z'
loop_
 _atom_site_type_symbol
 _atom_site_label
 _atom_site_symmetry_multiplicity
 _atom_site_fract_x
 _atom_site_fract_y
 _atom_site_fract_z
 _atom_site_occupancy
  Ba  Ba0  1  0.65820000  0.33020000  -0.32080000  1.0
  Ba  Ba1  1  0.57080000  0.91760000  -0.40820000  1.0
  Ba  Ba2  1  0.33020000  0.65820000  0.33240000  1.0
  Ba  Ba3  1  0.91760000  0.57080000  -0.08020000  1.0
  Ba  Ba4  1  1.00000000  -0.00000000  0.00000000  1.0
  Ba  Ba5  1  0.25000000  0.25000000  0.25000000  1.0
  P  P6  1  -0.41590000  0.42290000  0.42070000  1.0
  P  P7  1  0.82930000  0.67770000  -0.33410000  1.0
  P  P8  1  0.42290000  -0.41590000  0.57230000  1.0
  P  P9  1  0.67770000  0.82930000  -0.17290000  1.0
  P  P10  1  0.90140000  1.05580000  -0.24920000  1.0
  P  P11  1  0.49920000  -0.04200000  0.34860000  1.0
  P  P12  1  1.05580000  0.90140000  -0.70800000  1.0
  P  P13  1  -0.04200000  0.49920000  0.19420000  1.0
