# generated using pymatgen
data_HfCoF6
_symmetry_space_group_name_H-M   'P 1'
_cell_length_a   5.62959245
_cell_length_b   5.62959245
_cell_length_c   5.62959245
_cell_angle_alpha   58.83299145
_cell_angle_beta   58.83299145
_cell_angle_gamma   58.83299145
_symmetry_Int_Tables_number   1
_chemical_formula_structural   HfCoF6
_chemical_formula_sum   'Hf1 Co1 F6'
_cell_volume   122.79672084
_cell_formula_units_Z   1
loop_
 _symmetry_equiv_pos_site_id
 _symmetry_equiv_pos_as_xyz
  1  'x, y, z'
loop_
 _atom_site_type_symbol
 _atom_site_label
 _atom_site_symmetry_multiplicity
 _atom_site_fract_x
 _atom_site_fract_y
 _atom_site_fract_z
 _atom_site_occupancy
  Hf  Hf0  1  0.50000000  0.50000000  -0.50000000  1.0
  Co  Co1  1  0.00000000  0.00000000  0.00000000  1.0
  F  F2  1  0.13390000  0.76130000  -0.65550000  1.0
  F  F3  1  0.65550000  -0.13390000  0.23870000  1.0
  F  F4  1  1.23870000  -0.34450000  -0.13390000  1.0
  F  F5  1  0.86610000  0.23870000  -0.34450000  1.0
  F  F6  1  0.34450000  0.13390000  -0.23870000  1.0
  F  F7  1  0.76130000  0.34450000  -0.86610000  1.0
