# generated using pymatgen
data_Y(Mn2Fe)4
_symmetry_space_group_name_H-M   'P 1'
_cell_length_a   6.50098029
_cell_length_b   6.50098029
_cell_length_c   6.50098029
_cell_angle_alpha   97.73176200
_cell_angle_beta   97.73176200
_cell_angle_gamma   136.96432904
_symmetry_Int_Tables_number   1
_chemical_formula_structural   Y(Mn2Fe)4
_chemical_formula_sum   'Y1 Mn8 Fe4'
_cell_volume   174.43525756
_cell_formula_units_Z   1
loop_
 _symmetry_equiv_pos_site_id
 _symmetry_equiv_pos_as_xyz
  1  'x, y, z'
loop_
 _atom_site_type_symbol
 _atom_site_label
 _atom_site_symmetry_multiplicity
 _atom_site_fract_x
 _atom_site_fract_y
 _atom_site_fract_z
 _atom_site_occupancy
  Y  Y0  1  0.00000000  0.00000000  0.00000000  1.0
  Mn  Mn1  1  1.36000000  1.00000000  1.36000000  1.0
  Mn  Mn2  1  0.64000000  1.00000000  0.64000000  1.0
  Mn  Mn3  1  0.00000000  0.64000000  0.64000000  1.0
  Mn  Mn4  1  -0.00000000  0.36000000  0.36000000  1.0
  Mn  Mn5  1  0.28000000  0.50000000  0.78000000  1.0
  Mn  Mn6  1  0.72000000  0.50000000  1.22000000  1.0
  Mn  Mn7  1  0.50000000  0.72000000  0.22000000  1.0
  Mn  Mn8  1  0.50000000  1.28000000  0.78000000  1.0
  Fe  Fe9  1  1.00000000  1.00000000  0.50000000  1.0
  Fe  Fe10  1  0.50000000  0.50000000  0.50000000  1.0
  Fe  Fe11  1  1.00000000  0.50000000  1.00000000  1.0
  Fe  Fe12  1  1.50000000  1.00000000  1.00000000  1.0
