# generated using pymatgen
data_BaBeSiO4
_symmetry_space_group_name_H-M   'P 1'
_cell_length_a   5.11235891
_cell_length_b   5.11235891
_cell_length_c   5.10830000
_cell_angle_alpha   60.76012553
_cell_angle_beta   119.23987447
_cell_angle_gamma   119.54730696
_symmetry_Int_Tables_number   1
_chemical_formula_structural   BaBeSiO4
_chemical_formula_sum   'Ba1 Be1 Si1 O4'
_cell_volume   95.80686975
_cell_formula_units_Z   1
loop_
 _symmetry_equiv_pos_site_id
 _symmetry_equiv_pos_as_xyz
  1  'x, y, z'
loop_
 _atom_site_type_symbol
 _atom_site_label
 _atom_site_symmetry_multiplicity
 _atom_site_fract_x
 _atom_site_fract_y
 _atom_site_fract_z
 _atom_site_occupancy
  Ba  Ba0  1  0.00000000  0.00000000  -0.00000000  1.0
  Be  Be1  1  0.25140000  -0.25140000  0.73110000  1.0
  Si  Si2  1  0.49310000  -0.49310000  0.47550000  1.0
  O  O3  1  0.87240000  -0.37860000  0.56560000  1.0
  O  O4  1  1.37860000  0.12760000  0.56560000  1.0
  O  O5  1  0.33860000  -0.33860000  0.11140000  1.0
  O  O6  1  0.41490000  -0.41490000  0.69010000  1.0
