# generated using pymatgen
data_RuN7ClO6
_symmetry_space_group_name_H-M   'P 1'
_cell_length_a   7.51559368
_cell_length_b   7.51559368
_cell_length_c   7.51559368
_cell_angle_alpha   119.42250794
_cell_angle_beta   119.42250794
_cell_angle_gamma   91.00319020
_symmetry_Int_Tables_number   1
_chemical_formula_structural   RuN7ClO6
_chemical_formula_sum   'Ru1 N7 Cl1 O6'
_cell_volume   302.74518151
_cell_formula_units_Z   1
loop_
 _symmetry_equiv_pos_site_id
 _symmetry_equiv_pos_as_xyz
  1  'x, y, z'
loop_
 _atom_site_type_symbol
 _atom_site_label
 _atom_site_symmetry_multiplicity
 _atom_site_fract_x
 _atom_site_fract_y
 _atom_site_fract_z
 _atom_site_occupancy
  Ru  Ru0  1  0.13360000  0.13360000  0.00000000  1.0
  N  N1  1  0.32200000  0.32200000  0.00000000  1.0
  N  N2  1  0.93780000  0.93800000  1.60500000  1.0
  N  N3  1  1.33300000  1.33280000  1.39500000  1.0
  N  N4  1  0.93800000  1.33300000  1.00020000  1.0
  N  N5  1  0.33280000  0.93780000  0.99980000  1.0
  N  N6  1  0.38440000  0.88440000  0.50000000  1.0
  N  N7  1  0.88440000  0.38440000  0.50000000  1.0
  Cl  Cl8  1  0.91350000  0.91350000  0.00000000  1.0
  O  O9  1  0.26690000  0.76690000  0.50000000  1.0
  O  O10  1  0.76690000  0.26690000  0.50000000  1.0
  O  O11  1  1.24700000  1.80720000  1.16020000  1.0
  O  O12  1  0.64700000  1.08680000  0.83980000  1.0
  O  O13  1  0.80720000  0.64700000  0.56020000  1.0
  O  O14  1  1.08680000  1.24700000  0.43980000  1.0
