# generated using pymatgen
data_BaBiBS4
_symmetry_space_group_name_H-M   'P 1'
_cell_length_a   8.11909615
_cell_length_b   8.11909615
_cell_length_c   7.55910000
_cell_angle_alpha   79.29967034
_cell_angle_beta   100.70032966
_cell_angle_gamma   134.75842445
_symmetry_Int_Tables_number   1
_chemical_formula_structural   BaBiBS4
_chemical_formula_sum   'Ba2 Bi2 B2 S8'
_cell_volume   346.59752188
_cell_formula_units_Z   2
loop_
 _symmetry_equiv_pos_site_id
 _symmetry_equiv_pos_as_xyz
  1  'x, y, z'
loop_
 _atom_site_type_symbol
 _atom_site_label
 _atom_site_symmetry_multiplicity
 _atom_site_fract_x
 _atom_site_fract_y
 _atom_site_fract_z
 _atom_site_occupancy
  Ba  Ba0  1  0.81910000  -0.81910000  0.30770000  1.0
  Ba  Ba1  1  1.18090000  -0.18090000  0.69230000  1.0
  Bi  Bi2  1  1.45350000  -0.45350000  0.74270000  1.0
  Bi  Bi3  1  0.54650000  -0.54650000  0.25730000  1.0
  B  B4  1  0.89690000  -0.89690000  0.84440000  1.0
  B  B5  1  1.10310000  -0.10310000  0.15560000  1.0
  S  S6  1  1.61100000  -0.10820000  0.93120000  1.0
  S  S7  1  1.10820000  -0.61100000  0.93120000  1.0
  S  S8  1  0.89180000  -0.38900000  0.06880000  1.0
  S  S9  1  1.38900000  0.10820000  0.06880000  1.0
  S  S10  1  0.96570000  -0.96570000  0.68050000  1.0
  S  S11  1  1.03430000  -0.03430000  0.31950000  1.0
  S  S12  1  0.65890000  -0.65890000  0.54970000  1.0
  S  S13  1  1.34110000  -0.34110000  0.45030000  1.0
