# generated using pymatgen
data_K2Cr2NiO10
_symmetry_space_group_name_H-M   'P 1'
_cell_length_a   5.61900000
_cell_length_b   7.35500000
_cell_length_c   6.42500000
_cell_angle_alpha   109.84000000
_cell_angle_beta   106.60000000
_cell_angle_gamma   96.78000000
_symmetry_Int_Tables_number   1
_chemical_formula_structural   K2Cr2NiO10
_chemical_formula_sum   'K2 Cr2 Ni1 O10'
_cell_volume   232.45120281
_cell_formula_units_Z   1
loop_
 _symmetry_equiv_pos_site_id
 _symmetry_equiv_pos_as_xyz
  1  'x, y, z'
loop_
 _atom_site_type_symbol
 _atom_site_label
 _atom_site_symmetry_multiplicity
 _atom_site_fract_x
 _atom_site_fract_y
 _atom_site_fract_z
 _atom_site_occupancy
  K  K0  1  -0.71170000  -0.74510000  -0.32590000  1.0
  K  K1  1  -0.28830000  -0.25490000  -0.67410000  1.0
  Cr  Cr2  1  -0.35520000  -0.77310000  -0.69140000  1.0
  Cr  Cr3  1  -0.64480000  -0.22690000  -0.30860000  1.0
  Ni  Ni4  1  0.00000000  0.00000000  0.00000000  1.0
  O  O5  1  -0.96050000  -0.71110000  -0.98980000  1.0
  O  O6  1  -0.03950000  -0.28890000  -0.01020000  1.0
  O  O7  1  -0.73890000  -0.39170000  -0.58340000  1.0
  O  O8  1  -0.26110000  -0.60830000  -0.41660000  1.0
  O  O9  1  -0.63690000  -0.91640000  -0.75210000  1.0
  O  O10  1  -0.36310000  -0.08360000  -0.24790000  1.0
  O  O11  1  -0.39430000  -0.66440000  -0.87700000  1.0
  O  O12  1  -0.60570000  -0.33560000  -0.12300000  1.0
  O  O13  1  -0.13470000  -0.90510000  -0.72290000  1.0
  O  O14  1  -0.86530000  -0.09490000  -0.27710000  1.0
