# generated using pymatgen
data_Ba2Pb
_symmetry_space_group_name_H-M   'P 1'
_cell_length_a   8.64000000
_cell_length_b   5.71000000
_cell_length_c   10.61000000
_cell_angle_alpha   90.00000000
_cell_angle_beta   90.00000000
_cell_angle_gamma   90.00000000
_symmetry_Int_Tables_number   1
_chemical_formula_structural   Ba2Pb
_chemical_formula_sum   'Ba8 Pb4'
_cell_volume   523.43798400
_cell_formula_units_Z   4
loop_
 _symmetry_equiv_pos_site_id
 _symmetry_equiv_pos_as_xyz
  1  'x, y, z'
loop_
 _atom_site_type_symbol
 _atom_site_label
 _atom_site_symmetry_multiplicity
 _atom_site_fract_x
 _atom_site_fract_y
 _atom_site_fract_z
 _atom_site_occupancy
  Ba  Ba0  1  0.96200000  0.75000000  0.71800000  1.0
  Ba  Ba1  1  0.46200000  0.75000000  0.78200000  1.0
  Ba  Ba2  1  0.03800000  0.25000000  0.28200000  1.0
  Ba  Ba3  1  0.53800000  0.25000000  0.21800000  1.0
  Ba  Ba4  1  0.82600000  0.75000000  0.06200000  1.0
  Ba  Ba5  1  0.32600000  0.75000000  0.43800000  1.0
  Ba  Ba6  1  0.17400000  0.25000000  0.93800000  1.0
  Ba  Ba7  1  0.67400000  0.25000000  0.56200000  1.0
  Pb  Pb8  1  0.79800000  0.75000000  0.38900000  1.0
  Pb  Pb9  1  0.29800000  0.75000000  0.11100000  1.0
  Pb  Pb10  1  0.20200000  0.25000000  0.61100000  1.0
  Pb  Pb11  1  0.70200000  0.25000000  0.88900000  1.0
